# generated using pymatgen
data_SiC
_symmetry_space_group_name_H-M   'P 1'
_cell_length_a   45.64128826
_cell_length_b   23.52188853
_cell_length_c   117.60944263
_cell_angle_alpha   120.00000000
_cell_angle_beta   64.34751037
_cell_angle_gamma   146.29844438
_symmetry_Int_Tables_number   1
_chemical_formula_structural   SiC
_chemical_formula_sum   'Si3200 C3200'
_cell_volume   60634.76695443
_cell_formula_units_Z   3200
loop_
 _symmetry_equiv_pos_site_id
 _symmetry_equiv_pos_as_xyz
  1  'x, y, z'
loop_
 _atom_site_type_symbol
 _atom_site_label
 _atom_site_symmetry_multiplicity
 _atom_site_fract_x
 _atom_site_fract_y
 _atom_site_fract_z
 _atom_site_occupancy
  C  C0  1  0.22481900  0.01356429  0.01395381  1
  C  C1  1  0.22481900  0.01356429  0.21395381  1
  C  C2  1  0.22481900  0.01356429  0.41395381  1
  C  C3  1  0.22481900  0.01356429  0.61395381  1
  C  C4  1  0.22481900  0.01356429  0.81395381  1
  C  C5  1  0.22481900  0.13856429  0.01395381  1
  C  C6  1  0.22481900  0.13856429  0.21395381  1
  C  C7  1  0.22481900  0.13856429  0.41395381  1
  C  C8  1  0.22481900  0.13856429  0.61395381  1
  C  C9  1  0.22481900  0.13856429  0.81395381  1
  C  C10  1  0.22481900  0.01356429  0.03895381  1
  C  C11  1  0.22481900  0.01356429  0.23895381  1
  C  C12  1  0.22481900  0.01356429  0.43895381  1
  C  C13  1  0.22481900  0.01356429  0.63895381  1
  C  C14  1  0.22481900  0.01356429  0.83895381  1
  C  C15  1  0.22481900  0.26356429  0.01395381  1
  C  C16  1  0.22481900  0.26356429  0.21395381  1
  C  C17  1  0.22481900  0.26356429  0.41395381  1
  C  C18  1  0.22481900  0.26356429  0.61395381  1
  C  C19  1  0.22481900  0.26356429  0.81395381  1
  C  C20  1  0.22481900  0.13856429  0.03895381  1
  C  C21  1  0.22481900  0.13856429  0.23895381  1
  C  C22  1  0.22481900  0.13856429  0.43895381  1
  C  C23  1  0.22481900  0.13856429  0.63895381  1
  C  C24  1  0.22481900  0.13856429  0.83895381  1
  C  C25  1  0.22481900  0.01356429  0.06395381  1
  C  C26  1  0.22481900  0.01356429  0.26395381  1
  C  C27  1  0.22481900  0.01356429  0.46395381  1
  C  C28  1  0.22481900  0.01356429  0.66395381  1
  C  C29  1  0.22481900  0.01356429  0.86395381  1
  C  C30  1  0.22481900  0.38856429  0.01395381  1
  C  C31  1  0.22481900  0.38856429  0.21395381  1
  C  C32  1  0.22481900  0.38856429  0.41395381  1
  C  C33  1  0.22481900  0.38856429  0.61395381  1
  C  C34  1  0.22481900  0.38856429  0.81395381  1
  C  C35  1  0.22481900  0.26356429  0.03895381  1
  C  C36  1  0.22481900  0.26356429  0.23895381  1
  C  C37  1  0.22481900  0.26356429  0.43895381  1
  C  C38  1  0.22481900  0.26356429  0.63895381  1
  C  C39  1  0.22481900  0.26356429  0.83895381  1
  C  C40  1  0.22481900  0.13856429  0.06395381  1
  C  C41  1  0.22481900  0.13856429  0.26395381  1
  C  C42  1  0.22481900  0.13856429  0.46395381  1
  C  C43  1  0.22481900  0.13856429  0.66395381  1
  C  C44  1  0.22481900  0.13856429  0.86395381  1
  C  C45  1  0.22481900  0.01356429  0.08895381  1
  C  C46  1  0.22481900  0.01356429  0.28895381  1
  C  C47  1  0.22481900  0.01356429  0.48895381  1
  C  C48  1  0.22481900  0.01356429  0.68895381  1
  C  C49  1  0.22481900  0.01356429  0.88895381  1
  C  C50  1  0.22481900  0.51356429  0.01395381  1
  C  C51  1  0.22481900  0.51356429  0.21395381  1
  C  C52  1  0.22481900  0.51356429  0.41395381  1
  C  C53  1  0.22481900  0.51356429  0.61395381  1
  C  C54  1  0.22481900  0.51356429  0.81395381  1
  C  C55  1  0.22481900  0.38856429  0.03895381  1
  C  C56  1  0.22481900  0.38856429  0.23895381  1
  C  C57  1  0.22481900  0.38856429  0.43895381  1
  C  C58  1  0.22481900  0.38856429  0.63895381  1
  C  C59  1  0.22481900  0.38856429  0.83895381  1
  C  C60  1  0.22481900  0.26356429  0.06395381  1
  C  C61  1  0.22481900  0.26356429  0.26395381  1
  C  C62  1  0.22481900  0.26356429  0.46395381  1
  C  C63  1  0.22481900  0.26356429  0.66395381  1
  C  C64  1  0.22481900  0.26356429  0.86395381  1
  C  C65  1  0.22481900  0.13856429  0.08895381  1
  C  C66  1  0.22481900  0.13856429  0.28895381  1
  C  C67  1  0.22481900  0.13856429  0.48895381  1
  C  C68  1  0.22481900  0.13856429  0.68895381  1
  C  C69  1  0.22481900  0.13856429  0.88895381  1
  C  C70  1  0.22481900  0.01356429  0.11395381  1
  C  C71  1  0.22481900  0.01356429  0.31395381  1
  C  C72  1  0.22481900  0.01356429  0.51395381  1
  C  C73  1  0.22481900  0.01356429  0.71395381  1
  C  C74  1  0.22481900  0.01356429  0.91395381  1
  C  C75  1  0.22481900  0.63856429  0.01395381  1
  C  C76  1  0.22481900  0.63856429  0.21395381  1
  C  C77  1  0.22481900  0.63856429  0.41395381  1
  C  C78  1  0.22481900  0.63856429  0.61395381  1
  C  C79  1  0.22481900  0.63856429  0.81395381  1
  C  C80  1  0.22481900  0.51356429  0.03895381  1
  C  C81  1  0.22481900  0.51356429  0.23895381  1
  C  C82  1  0.22481900  0.51356429  0.43895381  1
  C  C83  1  0.22481900  0.51356429  0.63895381  1
  C  C84  1  0.22481900  0.51356429  0.83895381  1
  C  C85  1  0.22481900  0.38856429  0.06395381  1
  C  C86  1  0.22481900  0.38856429  0.26395381  1
  C  C87  1  0.22481900  0.38856429  0.46395381  1
  C  C88  1  0.22481900  0.38856429  0.66395381  1
  C  C89  1  0.22481900  0.38856429  0.86395381  1
  C  C90  1  0.22481900  0.26356429  0.08895381  1
  C  C91  1  0.22481900  0.26356429  0.28895381  1
  C  C92  1  0.22481900  0.26356429  0.48895381  1
  C  C93  1  0.22481900  0.26356429  0.68895381  1
  C  C94  1  0.22481900  0.26356429  0.88895381  1
  C  C95  1  0.22481900  0.13856429  0.11395381  1
  C  C96  1  0.22481900  0.13856429  0.31395381  1
  C  C97  1  0.22481900  0.13856429  0.51395381  1
  C  C98  1  0.22481900  0.13856429  0.71395381  1
  C  C99  1  0.22481900  0.13856429  0.91395381  1
  C  C100  1  0.22481900  0.01356429  0.13895381  1
  C  C101  1  0.22481900  0.01356429  0.33895381  1
  C  C102  1  0.22481900  0.01356429  0.53895381  1
  C  C103  1  0.22481900  0.01356429  0.73895381  1
  C  C104  1  0.22481900  0.01356429  0.93895381  1
  C  C105  1  0.22481900  0.76356429  0.01395381  1
  C  C106  1  0.22481900  0.76356429  0.21395381  1
  C  C107  1  0.22481900  0.76356429  0.41395381  1
  C  C108  1  0.22481900  0.76356429  0.61395381  1
  C  C109  1  0.22481900  0.76356429  0.81395381  1
  C  C110  1  0.22481900  0.63856429  0.03895381  1
  C  C111  1  0.22481900  0.63856429  0.23895381  1
  C  C112  1  0.22481900  0.63856429  0.43895381  1
  C  C113  1  0.22481900  0.63856429  0.63895381  1
  C  C114  1  0.22481900  0.63856429  0.83895381  1
  C  C115  1  0.22481900  0.51356429  0.06395381  1
  C  C116  1  0.22481900  0.51356429  0.26395381  1
  C  C117  1  0.22481900  0.51356429  0.46395381  1
  C  C118  1  0.22481900  0.51356429  0.66395381  1
  C  C119  1  0.22481900  0.51356429  0.86395381  1
  C  C120  1  0.22481900  0.38856429  0.08895381  1
  C  C121  1  0.22481900  0.38856429  0.28895381  1
  C  C122  1  0.22481900  0.38856429  0.48895381  1
  C  C123  1  0.22481900  0.38856429  0.68895381  1
  C  C124  1  0.22481900  0.38856429  0.88895381  1
  C  C125  1  0.22481900  0.26356429  0.11395381  1
  C  C126  1  0.22481900  0.26356429  0.31395381  1
  C  C127  1  0.22481900  0.26356429  0.51395381  1
  C  C128  1  0.22481900  0.26356429  0.71395381  1
  C  C129  1  0.22481900  0.26356429  0.91395381  1
  C  C130  1  0.22481900  0.13856429  0.13895381  1
  C  C131  1  0.22481900  0.13856429  0.33895381  1
  C  C132  1  0.22481900  0.13856429  0.53895381  1
  C  C133  1  0.22481900  0.13856429  0.73895381  1
  C  C134  1  0.22481900  0.13856429  0.93895381  1
  C  C135  1  0.22481900  0.01356429  0.16395381  1
  C  C136  1  0.22481900  0.01356429  0.36395381  1
  C  C137  1  0.22481900  0.01356429  0.56395381  1
  C  C138  1  0.22481900  0.01356429  0.76395381  1
  C  C139  1  0.22481900  0.01356429  0.96395381  1
  C  C140  1  0.22481900  0.88856429  0.01395381  1
  C  C141  1  0.22481900  0.88856429  0.21395381  1
  C  C142  1  0.22481900  0.88856429  0.41395381  1
  C  C143  1  0.22481900  0.88856429  0.61395381  1
  C  C144  1  0.22481900  0.88856429  0.81395381  1
  C  C145  1  0.22481900  0.76356429  0.03895381  1
  C  C146  1  0.22481900  0.76356429  0.23895381  1
  C  C147  1  0.22481900  0.76356429  0.43895381  1
  C  C148  1  0.22481900  0.76356429  0.63895381  1
  C  C149  1  0.22481900  0.76356429  0.83895381  1
  C  C150  1  0.22481900  0.63856429  0.06395381  1
  C  C151  1  0.22481900  0.63856429  0.26395381  1
  C  C152  1  0.22481900  0.63856429  0.46395381  1
  C  C153  1  0.22481900  0.63856429  0.66395381  1
  C  C154  1  0.22481900  0.63856429  0.86395381  1
  C  C155  1  0.22481900  0.51356429  0.08895381  1
  C  C156  1  0.22481900  0.51356429  0.28895381  1
  C  C157  1  0.22481900  0.51356429  0.48895381  1
  C  C158  1  0.22481900  0.51356429  0.68895381  1
  C  C159  1  0.22481900  0.51356429  0.88895381  1
  C  C160  1  0.22481900  0.38856429  0.11395381  1
  C  C161  1  0.22481900  0.38856429  0.31395381  1
  C  C162  1  0.22481900  0.38856429  0.51395381  1
  C  C163  1  0.22481900  0.38856429  0.71395381  1
  C  C164  1  0.22481900  0.38856429  0.91395381  1
  C  C165  1  0.22481900  0.26356429  0.13895381  1
  C  C166  1  0.22481900  0.26356429  0.33895381  1
  C  C167  1  0.22481900  0.26356429  0.53895381  1
  C  C168  1  0.22481900  0.26356429  0.73895381  1
  C  C169  1  0.22481900  0.26356429  0.93895381  1
  C  C170  1  0.22481900  0.13856429  0.16395381  1
  C  C171  1  0.22481900  0.13856429  0.36395381  1
  C  C172  1  0.22481900  0.13856429  0.56395381  1
  C  C173  1  0.22481900  0.13856429  0.76395381  1
  C  C174  1  0.22481900  0.13856429  0.96395381  1
  C  C175  1  0.22481900  0.01356429  0.18895381  1
  C  C176  1  0.22481900  0.01356429  0.38895381  1
  C  C177  1  0.22481900  0.01356429  0.58895381  1
  C  C178  1  0.22481900  0.01356429  0.78895381  1
  C  C179  1  0.22481900  0.01356429  0.98895381  1
  C  C180  1  0.22481900  0.88856429  0.03895381  1
  C  C181  1  0.22481900  0.88856429  0.23895381  1
  C  C182  1  0.22481900  0.88856429  0.43895381  1
  C  C183  1  0.22481900  0.88856429  0.63895381  1
  C  C184  1  0.22481900  0.88856429  0.83895381  1
  C  C185  1  0.22481900  0.76356429  0.06395381  1
  C  C186  1  0.22481900  0.76356429  0.26395381  1
  C  C187  1  0.22481900  0.76356429  0.46395381  1
  C  C188  1  0.22481900  0.76356429  0.66395381  1
  C  C189  1  0.22481900  0.76356429  0.86395381  1
  C  C190  1  0.22481900  0.63856429  0.08895381  1
  C  C191  1  0.22481900  0.63856429  0.28895381  1
  C  C192  1  0.22481900  0.63856429  0.48895381  1
  C  C193  1  0.22481900  0.63856429  0.68895381  1
  C  C194  1  0.22481900  0.63856429  0.88895381  1
  C  C195  1  0.22481900  0.51356429  0.11395381  1
  C  C196  1  0.22481900  0.51356429  0.31395381  1
  C  C197  1  0.22481900  0.51356429  0.51395381  1
  C  C198  1  0.22481900  0.51356429  0.71395381  1
  C  C199  1  0.22481900  0.51356429  0.91395381  1
  C  C200  1  0.22481900  0.38856429  0.13895381  1
  C  C201  1  0.22481900  0.38856429  0.33895381  1
  C  C202  1  0.22481900  0.38856429  0.53895381  1
  C  C203  1  0.22481900  0.38856429  0.73895381  1
  C  C204  1  0.22481900  0.38856429  0.93895381  1
  C  C205  1  0.22481900  0.26356429  0.16395381  1
  C  C206  1  0.22481900  0.26356429  0.36395381  1
  C  C207  1  0.22481900  0.26356429  0.56395381  1
  C  C208  1  0.22481900  0.26356429  0.76395381  1
  C  C209  1  0.22481900  0.26356429  0.96395381  1
  C  C210  1  0.22481900  0.13856429  0.18895381  1
  C  C211  1  0.22481900  0.13856429  0.38895381  1
  C  C212  1  0.22481900  0.13856429  0.58895381  1
  C  C213  1  0.22481900  0.13856429  0.78895381  1
  C  C214  1  0.22481900  0.13856429  0.98895381  1
  C  C215  1  0.22481900  0.88856429  0.06395381  1
  C  C216  1  0.22481900  0.88856429  0.26395381  1
  C  C217  1  0.22481900  0.88856429  0.46395381  1
  C  C218  1  0.22481900  0.88856429  0.66395381  1
  C  C219  1  0.22481900  0.88856429  0.86395381  1
  C  C220  1  0.22481900  0.76356429  0.08895381  1
  C  C221  1  0.22481900  0.76356429  0.28895381  1
  C  C222  1  0.22481900  0.76356429  0.48895381  1
  C  C223  1  0.22481900  0.76356429  0.68895381  1
  C  C224  1  0.22481900  0.76356429  0.88895381  1
  C  C225  1  0.22481900  0.63856429  0.11395381  1
  C  C226  1  0.22481900  0.63856429  0.31395381  1
  C  C227  1  0.22481900  0.63856429  0.51395381  1
  C  C228  1  0.22481900  0.63856429  0.71395381  1
  C  C229  1  0.22481900  0.63856429  0.91395381  1
  C  C230  1  0.22481900  0.51356429  0.13895381  1
  C  C231  1  0.22481900  0.51356429  0.33895381  1
  C  C232  1  0.22481900  0.51356429  0.53895381  1
  C  C233  1  0.22481900  0.51356429  0.73895381  1
  C  C234  1  0.22481900  0.51356429  0.93895381  1
  C  C235  1  0.22481900  0.38856429  0.16395381  1
  C  C236  1  0.22481900  0.38856429  0.36395381  1
  C  C237  1  0.22481900  0.38856429  0.56395381  1
  C  C238  1  0.22481900  0.38856429  0.76395381  1
  C  C239  1  0.22481900  0.38856429  0.96395381  1
  C  C240  1  0.22481900  0.26356429  0.18895381  1
  C  C241  1  0.22481900  0.26356429  0.38895381  1
  C  C242  1  0.22481900  0.26356429  0.58895381  1
  C  C243  1  0.22481900  0.26356429  0.78895381  1
  C  C244  1  0.22481900  0.26356429  0.98895381  1
  C  C245  1  0.22481900  0.88856429  0.08895381  1
  C  C246  1  0.22481900  0.88856429  0.28895381  1
  C  C247  1  0.22481900  0.88856429  0.48895381  1
  C  C248  1  0.22481900  0.88856429  0.68895381  1
  C  C249  1  0.22481900  0.88856429  0.88895381  1
  C  C250  1  0.22481900  0.76356429  0.11395381  1
  C  C251  1  0.22481900  0.76356429  0.31395381  1
  C  C252  1  0.22481900  0.76356429  0.51395381  1
  C  C253  1  0.22481900  0.76356429  0.71395381  1
  C  C254  1  0.22481900  0.76356429  0.91395381  1
  C  C255  1  0.22481900  0.63856429  0.13895381  1
  C  C256  1  0.22481900  0.63856429  0.33895381  1
  C  C257  1  0.22481900  0.63856429  0.53895381  1
  C  C258  1  0.22481900  0.63856429  0.73895381  1
  C  C259  1  0.22481900  0.63856429  0.93895381  1
  C  C260  1  0.22481900  0.51356429  0.16395381  1
  C  C261  1  0.22481900  0.51356429  0.36395381  1
  C  C262  1  0.22481900  0.51356429  0.56395381  1
  C  C263  1  0.22481900  0.51356429  0.76395381  1
  C  C264  1  0.22481900  0.51356429  0.96395381  1
  C  C265  1  0.22481900  0.38856429  0.18895381  1
  C  C266  1  0.22481900  0.38856429  0.38895381  1
  C  C267  1  0.22481900  0.38856429  0.58895381  1
  C  C268  1  0.22481900  0.38856429  0.78895381  1
  C  C269  1  0.22481900  0.38856429  0.98895381  1
  C  C270  1  0.22481900  0.88856429  0.11395381  1
  C  C271  1  0.22481900  0.88856429  0.31395381  1
  C  C272  1  0.22481900  0.88856429  0.51395381  1
  C  C273  1  0.22481900  0.88856429  0.71395381  1
  C  C274  1  0.22481900  0.88856429  0.91395381  1
  C  C275  1  0.22481900  0.76356429  0.13895381  1
  C  C276  1  0.22481900  0.76356429  0.33895381  1
  C  C277  1  0.22481900  0.76356429  0.53895381  1
  C  C278  1  0.22481900  0.76356429  0.73895381  1
  C  C279  1  0.22481900  0.76356429  0.93895381  1
  C  C280  1  0.22481900  0.63856429  0.16395381  1
  C  C281  1  0.22481900  0.63856429  0.36395381  1
  C  C282  1  0.22481900  0.63856429  0.56395381  1
  C  C283  1  0.22481900  0.63856429  0.76395381  1
  C  C284  1  0.22481900  0.63856429  0.96395381  1
  C  C285  1  0.22481900  0.51356429  0.18895381  1
  C  C286  1  0.22481900  0.51356429  0.38895381  1
  C  C287  1  0.22481900  0.51356429  0.58895381  1
  C  C288  1  0.22481900  0.51356429  0.78895381  1
  C  C289  1  0.22481900  0.51356429  0.98895381  1
  C  C290  1  0.22481900  0.88856429  0.13895381  1
  C  C291  1  0.22481900  0.88856429  0.33895381  1
  C  C292  1  0.22481900  0.88856429  0.53895381  1
  C  C293  1  0.22481900  0.88856429  0.73895381  1
  C  C294  1  0.22481900  0.88856429  0.93895381  1
  C  C295  1  0.22481900  0.76356429  0.16395381  1
  C  C296  1  0.22481900  0.76356429  0.36395381  1
  C  C297  1  0.22481900  0.76356429  0.56395381  1
  C  C298  1  0.22481900  0.76356429  0.76395381  1
  C  C299  1  0.22481900  0.76356429  0.96395381  1
  C  C300  1  0.22481900  0.63856429  0.18895381  1
  C  C301  1  0.22481900  0.63856429  0.38895381  1
  C  C302  1  0.22481900  0.63856429  0.58895381  1
  C  C303  1  0.22481900  0.63856429  0.78895381  1
  C  C304  1  0.22481900  0.63856429  0.98895381  1
  C  C305  1  0.22481900  0.88856429  0.16395381  1
  C  C306  1  0.22481900  0.88856429  0.36395381  1
  C  C307  1  0.22481900  0.88856429  0.56395381  1
  C  C308  1  0.22481900  0.88856429  0.76395381  1
  C  C309  1  0.22481900  0.88856429  0.96395381  1
  C  C310  1  0.22481900  0.76356429  0.18895381  1
  C  C311  1  0.22481900  0.76356429  0.38895381  1
  C  C312  1  0.22481900  0.76356429  0.58895381  1
  C  C313  1  0.22481900  0.76356429  0.78895381  1
  C  C314  1  0.22481900  0.76356429  0.98895381  1
  C  C315  1  0.22481900  0.88856429  0.18895381  1
  C  C316  1  0.22481900  0.88856429  0.38895381  1
  C  C317  1  0.22481900  0.88856429  0.58895381  1
  C  C318  1  0.22481900  0.88856429  0.78895381  1
  C  C319  1  0.22481900  0.88856429  0.98895381  1
  C  C320  1  0.92482200  0.05106392  0.00645388  1
  C  C321  1  0.92482200  0.05106392  0.20645388  1
  C  C322  1  0.92482200  0.05106392  0.40645388  1
  C  C323  1  0.92482200  0.05106392  0.60645388  1
  C  C324  1  0.92482200  0.05106392  0.80645388  1
  C  C325  1  0.92482200  0.17606392  0.00645388  1
  C  C326  1  0.92482200  0.17606392  0.20645388  1
  C  C327  1  0.92482200  0.17606392  0.40645388  1
  C  C328  1  0.92482200  0.17606392  0.60645388  1
  C  C329  1  0.92482200  0.17606392  0.80645388  1
  C  C330  1  0.92482200  0.05106392  0.03145388  1
  C  C331  1  0.92482200  0.05106392  0.23145388  1
  C  C332  1  0.92482200  0.05106392  0.43145388  1
  C  C333  1  0.92482200  0.05106392  0.63145388  1
  C  C334  1  0.92482200  0.05106392  0.83145388  1
  C  C335  1  0.92482200  0.30106392  0.00645388  1
  C  C336  1  0.92482200  0.30106392  0.20645388  1
  C  C337  1  0.92482200  0.30106392  0.40645388  1
  C  C338  1  0.92482200  0.30106392  0.60645388  1
  C  C339  1  0.92482200  0.30106392  0.80645388  1
  C  C340  1  0.92482200  0.17606392  0.03145388  1
  C  C341  1  0.92482200  0.17606392  0.23145388  1
  C  C342  1  0.92482200  0.17606392  0.43145388  1
  C  C343  1  0.92482200  0.17606392  0.63145388  1
  C  C344  1  0.92482200  0.17606392  0.83145388  1
  C  C345  1  0.92482200  0.05106392  0.05645388  1
  C  C346  1  0.92482200  0.05106392  0.25645388  1
  C  C347  1  0.92482200  0.05106392  0.45645388  1
  C  C348  1  0.92482200  0.05106392  0.65645388  1
  C  C349  1  0.92482200  0.05106392  0.85645388  1
  C  C350  1  0.92482200  0.42606392  0.00645388  1
  C  C351  1  0.92482200  0.42606392  0.20645388  1
  C  C352  1  0.92482200  0.42606392  0.40645388  1
  C  C353  1  0.92482200  0.42606392  0.60645388  1
  C  C354  1  0.92482200  0.42606392  0.80645388  1
  C  C355  1  0.92482200  0.30106392  0.03145388  1
  C  C356  1  0.92482200  0.30106392  0.23145388  1
  C  C357  1  0.92482200  0.30106392  0.43145388  1
  C  C358  1  0.92482200  0.30106392  0.63145388  1
  C  C359  1  0.92482200  0.30106392  0.83145388  1
  C  C360  1  0.92482200  0.17606392  0.05645388  1
  C  C361  1  0.92482200  0.17606392  0.25645388  1
  C  C362  1  0.92482200  0.17606392  0.45645388  1
  C  C363  1  0.92482200  0.17606392  0.65645388  1
  C  C364  1  0.92482200  0.17606392  0.85645388  1
  C  C365  1  0.92482200  0.05106392  0.08145388  1
  C  C366  1  0.92482200  0.05106392  0.28145388  1
  C  C367  1  0.92482200  0.05106392  0.48145388  1
  C  C368  1  0.92482200  0.05106392  0.68145388  1
  C  C369  1  0.92482200  0.05106392  0.88145388  1
  C  C370  1  0.92482200  0.55106392  0.00645388  1
  C  C371  1  0.92482200  0.55106392  0.20645388  1
  C  C372  1  0.92482200  0.55106392  0.40645388  1
  C  C373  1  0.92482200  0.55106392  0.60645388  1
  C  C374  1  0.92482200  0.55106392  0.80645388  1
  C  C375  1  0.92482200  0.42606392  0.03145388  1
  C  C376  1  0.92482200  0.42606392  0.23145388  1
  C  C377  1  0.92482200  0.42606392  0.43145388  1
  C  C378  1  0.92482200  0.42606392  0.63145388  1
  C  C379  1  0.92482200  0.42606392  0.83145388  1
  C  C380  1  0.92482200  0.30106392  0.05645388  1
  C  C381  1  0.92482200  0.30106392  0.25645388  1
  C  C382  1  0.92482200  0.30106392  0.45645388  1
  C  C383  1  0.92482200  0.30106392  0.65645388  1
  C  C384  1  0.92482200  0.30106392  0.85645388  1
  C  C385  1  0.92482200  0.17606392  0.08145388  1
  C  C386  1  0.92482200  0.17606392  0.28145388  1
  C  C387  1  0.92482200  0.17606392  0.48145388  1
  C  C388  1  0.92482200  0.17606392  0.68145388  1
  C  C389  1  0.92482200  0.17606392  0.88145388  1
  C  C390  1  0.92482200  0.05106392  0.10645388  1
  C  C391  1  0.92482200  0.05106392  0.30645388  1
  C  C392  1  0.92482200  0.05106392  0.50645388  1
  C  C393  1  0.92482200  0.05106392  0.70645388  1
  C  C394  1  0.92482200  0.05106392  0.90645388  1
  C  C395  1  0.92482200  0.67606392  0.00645388  1
  C  C396  1  0.92482200  0.67606392  0.20645388  1
  C  C397  1  0.92482200  0.67606392  0.40645388  1
  C  C398  1  0.92482200  0.67606392  0.60645388  1
  C  C399  1  0.92482200  0.67606392  0.80645388  1
  C  C400  1  0.92482200  0.55106392  0.03145388  1
  C  C401  1  0.92482200  0.55106392  0.23145388  1
  C  C402  1  0.92482200  0.55106392  0.43145388  1
  C  C403  1  0.92482200  0.55106392  0.63145388  1
  C  C404  1  0.92482200  0.55106392  0.83145388  1
  C  C405  1  0.92482200  0.42606392  0.05645388  1
  C  C406  1  0.92482200  0.42606392  0.25645388  1
  C  C407  1  0.92482200  0.42606392  0.45645388  1
  C  C408  1  0.92482200  0.42606392  0.65645388  1
  C  C409  1  0.92482200  0.42606392  0.85645388  1
  C  C410  1  0.92482200  0.30106392  0.08145388  1
  C  C411  1  0.92482200  0.30106392  0.28145388  1
  C  C412  1  0.92482200  0.30106392  0.48145388  1
  C  C413  1  0.92482200  0.30106392  0.68145388  1
  C  C414  1  0.92482200  0.30106392  0.88145388  1
  C  C415  1  0.92482200  0.17606392  0.10645388  1
  C  C416  1  0.92482200  0.17606392  0.30645388  1
  C  C417  1  0.92482200  0.17606392  0.50645388  1
  C  C418  1  0.92482200  0.17606392  0.70645388  1
  C  C419  1  0.92482200  0.17606392  0.90645388  1
  C  C420  1  0.92482200  0.05106392  0.13145388  1
  C  C421  1  0.92482200  0.05106392  0.33145388  1
  C  C422  1  0.92482200  0.05106392  0.53145388  1
  C  C423  1  0.92482200  0.05106392  0.73145388  1
  C  C424  1  0.92482200  0.05106392  0.93145388  1
  C  C425  1  0.92482200  0.80106392  0.00645388  1
  C  C426  1  0.92482200  0.80106392  0.20645388  1
  C  C427  1  0.92482200  0.80106392  0.40645388  1
  C  C428  1  0.92482200  0.80106392  0.60645388  1
  C  C429  1  0.92482200  0.80106392  0.80645388  1
  C  C430  1  0.92482200  0.67606392  0.03145388  1
  C  C431  1  0.92482200  0.67606392  0.23145388  1
  C  C432  1  0.92482200  0.67606392  0.43145388  1
  C  C433  1  0.92482200  0.67606392  0.63145388  1
  C  C434  1  0.92482200  0.67606392  0.83145388  1
  C  C435  1  0.92482200  0.55106392  0.05645388  1
  C  C436  1  0.92482200  0.55106392  0.25645388  1
  C  C437  1  0.92482200  0.55106392  0.45645388  1
  C  C438  1  0.92482200  0.55106392  0.65645388  1
  C  C439  1  0.92482200  0.55106392  0.85645388  1
  C  C440  1  0.92482200  0.42606392  0.08145388  1
  C  C441  1  0.92482200  0.42606392  0.28145388  1
  C  C442  1  0.92482200  0.42606392  0.48145388  1
  C  C443  1  0.92482200  0.42606392  0.68145388  1
  C  C444  1  0.92482200  0.42606392  0.88145388  1
  C  C445  1  0.92482200  0.30106392  0.10645388  1
  C  C446  1  0.92482200  0.30106392  0.30645388  1
  C  C447  1  0.92482200  0.30106392  0.50645388  1
  C  C448  1  0.92482200  0.30106392  0.70645388  1
  C  C449  1  0.92482200  0.30106392  0.90645388  1
  C  C450  1  0.92482200  0.17606392  0.13145388  1
  C  C451  1  0.92482200  0.17606392  0.33145388  1
  C  C452  1  0.92482200  0.17606392  0.53145388  1
  C  C453  1  0.92482200  0.17606392  0.73145388  1
  C  C454  1  0.92482200  0.17606392  0.93145388  1
  C  C455  1  0.92482200  0.05106392  0.15645388  1
  C  C456  1  0.92482200  0.05106392  0.35645388  1
  C  C457  1  0.92482200  0.05106392  0.55645388  1
  C  C458  1  0.92482200  0.05106392  0.75645388  1
  C  C459  1  0.92482200  0.05106392  0.95645388  1
  C  C460  1  0.92482200  0.92606392  0.00645388  1
  C  C461  1  0.92482200  0.92606392  0.20645388  1
  C  C462  1  0.92482200  0.92606392  0.40645388  1
  C  C463  1  0.92482200  0.92606392  0.60645388  1
  C  C464  1  0.92482200  0.92606392  0.80645388  1
  C  C465  1  0.92482200  0.80106392  0.03145388  1
  C  C466  1  0.92482200  0.80106392  0.23145388  1
  C  C467  1  0.92482200  0.80106392  0.43145388  1
  C  C468  1  0.92482200  0.80106392  0.63145388  1
  C  C469  1  0.92482200  0.80106392  0.83145388  1
  C  C470  1  0.92482200  0.67606392  0.05645388  1
  C  C471  1  0.92482200  0.67606392  0.25645388  1
  C  C472  1  0.92482200  0.67606392  0.45645388  1
  C  C473  1  0.92482200  0.67606392  0.65645388  1
  C  C474  1  0.92482200  0.67606392  0.85645388  1
  C  C475  1  0.92482200  0.55106392  0.08145388  1
  C  C476  1  0.92482200  0.55106392  0.28145388  1
  C  C477  1  0.92482200  0.55106392  0.48145388  1
  C  C478  1  0.92482200  0.55106392  0.68145388  1
  C  C479  1  0.92482200  0.55106392  0.88145388  1
  C  C480  1  0.92482200  0.42606392  0.10645388  1
  C  C481  1  0.92482200  0.42606392  0.30645388  1
  C  C482  1  0.92482200  0.42606392  0.50645388  1
  C  C483  1  0.92482200  0.42606392  0.70645388  1
  C  C484  1  0.92482200  0.42606392  0.90645388  1
  C  C485  1  0.92482200  0.30106392  0.13145388  1
  C  C486  1  0.92482200  0.30106392  0.33145388  1
  C  C487  1  0.92482200  0.30106392  0.53145388  1
  C  C488  1  0.92482200  0.30106392  0.73145388  1
  C  C489  1  0.92482200  0.30106392  0.93145388  1
  C  C490  1  0.92482200  0.17606392  0.15645388  1
  C  C491  1  0.92482200  0.17606392  0.35645388  1
  C  C492  1  0.92482200  0.17606392  0.55645388  1
  C  C493  1  0.92482200  0.17606392  0.75645388  1
  C  C494  1  0.92482200  0.17606392  0.95645388  1
  C  C495  1  0.92482200  0.05106392  0.18145388  1
  C  C496  1  0.92482200  0.05106392  0.38145388  1
  C  C497  1  0.92482200  0.05106392  0.58145388  1
  C  C498  1  0.92482200  0.05106392  0.78145388  1
  C  C499  1  0.92482200  0.05106392  0.98145388  1
  C  C500  1  0.92482200  0.92606392  0.03145388  1
  C  C501  1  0.92482200  0.92606392  0.23145388  1
  C  C502  1  0.92482200  0.92606392  0.43145388  1
  C  C503  1  0.92482200  0.92606392  0.63145388  1
  C  C504  1  0.92482200  0.92606392  0.83145388  1
  C  C505  1  0.92482200  0.80106392  0.05645388  1
  C  C506  1  0.92482200  0.80106392  0.25645388  1
  C  C507  1  0.92482200  0.80106392  0.45645388  1
  C  C508  1  0.92482200  0.80106392  0.65645388  1
  C  C509  1  0.92482200  0.80106392  0.85645388  1
  C  C510  1  0.92482200  0.67606392  0.08145388  1
  C  C511  1  0.92482200  0.67606392  0.28145388  1
  C  C512  1  0.92482200  0.67606392  0.48145388  1
  C  C513  1  0.92482200  0.67606392  0.68145388  1
  C  C514  1  0.92482200  0.67606392  0.88145388  1
  C  C515  1  0.92482200  0.55106392  0.10645388  1
  C  C516  1  0.92482200  0.55106392  0.30645388  1
  C  C517  1  0.92482200  0.55106392  0.50645388  1
  C  C518  1  0.92482200  0.55106392  0.70645388  1
  C  C519  1  0.92482200  0.55106392  0.90645388  1
  C  C520  1  0.92482200  0.42606392  0.13145388  1
  C  C521  1  0.92482200  0.42606392  0.33145388  1
  C  C522  1  0.92482200  0.42606392  0.53145388  1
  C  C523  1  0.92482200  0.42606392  0.73145388  1
  C  C524  1  0.92482200  0.42606392  0.93145388  1
  C  C525  1  0.92482200  0.30106392  0.15645388  1
  C  C526  1  0.92482200  0.30106392  0.35645388  1
  C  C527  1  0.92482200  0.30106392  0.55645388  1
  C  C528  1  0.92482200  0.30106392  0.75645388  1
  C  C529  1  0.92482200  0.30106392  0.95645388  1
  C  C530  1  0.92482200  0.17606392  0.18145388  1
  C  C531  1  0.92482200  0.17606392  0.38145388  1
  C  C532  1  0.92482200  0.17606392  0.58145388  1
  C  C533  1  0.92482200  0.17606392  0.78145388  1
  C  C534  1  0.92482200  0.17606392  0.98145388  1
  C  C535  1  0.92482200  0.92606392  0.05645388  1
  C  C536  1  0.92482200  0.92606392  0.25645388  1
  C  C537  1  0.92482200  0.92606392  0.45645388  1
  C  C538  1  0.92482200  0.92606392  0.65645388  1
  C  C539  1  0.92482200  0.92606392  0.85645388  1
  C  C540  1  0.92482200  0.80106392  0.08145388  1
  C  C541  1  0.92482200  0.80106392  0.28145388  1
  C  C542  1  0.92482200  0.80106392  0.48145388  1
  C  C543  1  0.92482200  0.80106392  0.68145388  1
  C  C544  1  0.92482200  0.80106392  0.88145388  1
  C  C545  1  0.92482200  0.67606392  0.10645388  1
  C  C546  1  0.92482200  0.67606392  0.30645388  1
  C  C547  1  0.92482200  0.67606392  0.50645388  1
  C  C548  1  0.92482200  0.67606392  0.70645388  1
  C  C549  1  0.92482200  0.67606392  0.90645388  1
  C  C550  1  0.92482200  0.55106392  0.13145388  1
  C  C551  1  0.92482200  0.55106392  0.33145388  1
  C  C552  1  0.92482200  0.55106392  0.53145388  1
  C  C553  1  0.92482200  0.55106392  0.73145388  1
  C  C554  1  0.92482200  0.55106392  0.93145388  1
  C  C555  1  0.92482200  0.42606392  0.15645388  1
  C  C556  1  0.92482200  0.42606392  0.35645388  1
  C  C557  1  0.92482200  0.42606392  0.55645388  1
  C  C558  1  0.92482200  0.42606392  0.75645388  1
  C  C559  1  0.92482200  0.42606392  0.95645388  1
  C  C560  1  0.92482200  0.30106392  0.18145388  1
  C  C561  1  0.92482200  0.30106392  0.38145388  1
  C  C562  1  0.92482200  0.30106392  0.58145388  1
  C  C563  1  0.92482200  0.30106392  0.78145388  1
  C  C564  1  0.92482200  0.30106392  0.98145388  1
  C  C565  1  0.92482200  0.92606392  0.08145388  1
  C  C566  1  0.92482200  0.92606392  0.28145388  1
  C  C567  1  0.92482200  0.92606392  0.48145388  1
  C  C568  1  0.92482200  0.92606392  0.68145388  1
  C  C569  1  0.92482200  0.92606392  0.88145388  1
  C  C570  1  0.92482200  0.80106392  0.10645388  1
  C  C571  1  0.92482200  0.80106392  0.30645388  1
  C  C572  1  0.92482200  0.80106392  0.50645388  1
  C  C573  1  0.92482200  0.80106392  0.70645388  1
  C  C574  1  0.92482200  0.80106392  0.90645388  1
  C  C575  1  0.92482200  0.67606392  0.13145388  1
  C  C576  1  0.92482200  0.67606392  0.33145388  1
  C  C577  1  0.92482200  0.67606392  0.53145388  1
  C  C578  1  0.92482200  0.67606392  0.73145388  1
  C  C579  1  0.92482200  0.67606392  0.93145388  1
  C  C580  1  0.92482200  0.55106392  0.15645388  1
  C  C581  1  0.92482200  0.55106392  0.35645388  1
  C  C582  1  0.92482200  0.55106392  0.55645388  1
  C  C583  1  0.92482200  0.55106392  0.75645388  1
  C  C584  1  0.92482200  0.55106392  0.95645388  1
  C  C585  1  0.92482200  0.42606392  0.18145388  1
  C  C586  1  0.92482200  0.42606392  0.38145388  1
  C  C587  1  0.92482200  0.42606392  0.58145388  1
  C  C588  1  0.92482200  0.42606392  0.78145388  1
  C  C589  1  0.92482200  0.42606392  0.98145388  1
  C  C590  1  0.92482200  0.92606392  0.10645388  1
  C  C591  1  0.92482200  0.92606392  0.30645388  1
  C  C592  1  0.92482200  0.92606392  0.50645388  1
  C  C593  1  0.92482200  0.92606392  0.70645388  1
  C  C594  1  0.92482200  0.92606392  0.90645388  1
  C  C595  1  0.92482200  0.80106392  0.13145388  1
  C  C596  1  0.92482200  0.80106392  0.33145388  1
  C  C597  1  0.92482200  0.80106392  0.53145388  1
  C  C598  1  0.92482200  0.80106392  0.73145388  1
  C  C599  1  0.92482200  0.80106392  0.93145388  1
  C  C600  1  0.92482200  0.67606392  0.15645388  1
  C  C601  1  0.92482200  0.67606392  0.35645388  1
  C  C602  1  0.92482200  0.67606392  0.55645388  1
  C  C603  1  0.92482200  0.67606392  0.75645388  1
  C  C604  1  0.92482200  0.67606392  0.95645388  1
  C  C605  1  0.92482200  0.55106392  0.18145388  1
  C  C606  1  0.92482200  0.55106392  0.38145388  1
  C  C607  1  0.92482200  0.55106392  0.58145388  1
  C  C608  1  0.92482200  0.55106392  0.78145388  1
  C  C609  1  0.92482200  0.55106392  0.98145388  1
  C  C610  1  0.92482200  0.92606392  0.13145388  1
  C  C611  1  0.92482200  0.92606392  0.33145388  1
  C  C612  1  0.92482200  0.92606392  0.53145388  1
  C  C613  1  0.92482200  0.92606392  0.73145388  1
  C  C614  1  0.92482200  0.92606392  0.93145388  1
  C  C615  1  0.92482200  0.80106392  0.15645388  1
  C  C616  1  0.92482200  0.80106392  0.35645388  1
  C  C617  1  0.92482200  0.80106392  0.55645388  1
  C  C618  1  0.92482200  0.80106392  0.75645388  1
  C  C619  1  0.92482200  0.80106392  0.95645388  1
  C  C620  1  0.92482200  0.67606392  0.18145388  1
  C  C621  1  0.92482200  0.67606392  0.38145388  1
  C  C622  1  0.92482200  0.67606392  0.58145388  1
  C  C623  1  0.92482200  0.67606392  0.78145388  1
  C  C624  1  0.92482200  0.67606392  0.98145388  1
  C  C625  1  0.92482200  0.92606392  0.15645388  1
  C  C626  1  0.92482200  0.92606392  0.35645388  1
  C  C627  1  0.92482200  0.92606392  0.55645388  1
  C  C628  1  0.92482200  0.92606392  0.75645388  1
  C  C629  1  0.92482200  0.92606392  0.95645388  1
  C  C630  1  0.92482200  0.80106392  0.18145388  1
  C  C631  1  0.92482200  0.80106392  0.38145388  1
  C  C632  1  0.92482200  0.80106392  0.58145388  1
  C  C633  1  0.92482200  0.80106392  0.78145388  1
  C  C634  1  0.92482200  0.80106392  0.98145388  1
  C  C635  1  0.92482200  0.92606392  0.18145388  1
  C  C636  1  0.92482200  0.92606392  0.38145388  1
  C  C637  1  0.92482200  0.92606392  0.58145388  1
  C  C638  1  0.92482200  0.92606392  0.78145388  1
  C  C639  1  0.92482200  0.92606392  0.98145388  1
  C  C640  1  0.32511000  0.08436125  0.00812775  1
  C  C641  1  0.32511000  0.08436125  0.20812775  1
  C  C642  1  0.32511000  0.08436125  0.40812775  1
  C  C643  1  0.32511000  0.08436125  0.60812775  1
  C  C644  1  0.32511000  0.08436125  0.80812775  1
  C  C645  1  0.32511000  0.20936125  0.00812775  1
  C  C646  1  0.32511000  0.20936125  0.20812775  1
  C  C647  1  0.32511000  0.20936125  0.40812775  1
  C  C648  1  0.32511000  0.20936125  0.60812775  1
  C  C649  1  0.32511000  0.20936125  0.80812775  1
  C  C650  1  0.32511000  0.08436125  0.03312775  1
  C  C651  1  0.32511000  0.08436125  0.23312775  1
  C  C652  1  0.32511000  0.08436125  0.43312775  1
  C  C653  1  0.32511000  0.08436125  0.63312775  1
  C  C654  1  0.32511000  0.08436125  0.83312775  1
  C  C655  1  0.32511000  0.33436125  0.00812775  1
  C  C656  1  0.32511000  0.33436125  0.20812775  1
  C  C657  1  0.32511000  0.33436125  0.40812775  1
  C  C658  1  0.32511000  0.33436125  0.60812775  1
  C  C659  1  0.32511000  0.33436125  0.80812775  1
  C  C660  1  0.32511000  0.20936125  0.03312775  1
  C  C661  1  0.32511000  0.20936125  0.23312775  1
  C  C662  1  0.32511000  0.20936125  0.43312775  1
  C  C663  1  0.32511000  0.20936125  0.63312775  1
  C  C664  1  0.32511000  0.20936125  0.83312775  1
  C  C665  1  0.32511000  0.08436125  0.05812775  1
  C  C666  1  0.32511000  0.08436125  0.25812775  1
  C  C667  1  0.32511000  0.08436125  0.45812775  1
  C  C668  1  0.32511000  0.08436125  0.65812775  1
  C  C669  1  0.32511000  0.08436125  0.85812775  1
  C  C670  1  0.32511000  0.45936125  0.00812775  1
  C  C671  1  0.32511000  0.45936125  0.20812775  1
  C  C672  1  0.32511000  0.45936125  0.40812775  1
  C  C673  1  0.32511000  0.45936125  0.60812775  1
  C  C674  1  0.32511000  0.45936125  0.80812775  1
  C  C675  1  0.32511000  0.33436125  0.03312775  1
  C  C676  1  0.32511000  0.33436125  0.23312775  1
  C  C677  1  0.32511000  0.33436125  0.43312775  1
  C  C678  1  0.32511000  0.33436125  0.63312775  1
  C  C679  1  0.32511000  0.33436125  0.83312775  1
  C  C680  1  0.32511000  0.20936125  0.05812775  1
  C  C681  1  0.32511000  0.20936125  0.25812775  1
  C  C682  1  0.32511000  0.20936125  0.45812775  1
  C  C683  1  0.32511000  0.20936125  0.65812775  1
  C  C684  1  0.32511000  0.20936125  0.85812775  1
  C  C685  1  0.32511000  0.08436125  0.08312775  1
  C  C686  1  0.32511000  0.08436125  0.28312775  1
  C  C687  1  0.32511000  0.08436125  0.48312775  1
  C  C688  1  0.32511000  0.08436125  0.68312775  1
  C  C689  1  0.32511000  0.08436125  0.88312775  1
  C  C690  1  0.32511000  0.58436125  0.00812775  1
  C  C691  1  0.32511000  0.58436125  0.20812775  1
  C  C692  1  0.32511000  0.58436125  0.40812775  1
  C  C693  1  0.32511000  0.58436125  0.60812775  1
  C  C694  1  0.32511000  0.58436125  0.80812775  1
  C  C695  1  0.32511000  0.45936125  0.03312775  1
  C  C696  1  0.32511000  0.45936125  0.23312775  1
  C  C697  1  0.32511000  0.45936125  0.43312775  1
  C  C698  1  0.32511000  0.45936125  0.63312775  1
  C  C699  1  0.32511000  0.45936125  0.83312775  1
  C  C700  1  0.32511000  0.33436125  0.05812775  1
  C  C701  1  0.32511000  0.33436125  0.25812775  1
  C  C702  1  0.32511000  0.33436125  0.45812775  1
  C  C703  1  0.32511000  0.33436125  0.65812775  1
  C  C704  1  0.32511000  0.33436125  0.85812775  1
  C  C705  1  0.32511000  0.20936125  0.08312775  1
  C  C706  1  0.32511000  0.20936125  0.28312775  1
  C  C707  1  0.32511000  0.20936125  0.48312775  1
  C  C708  1  0.32511000  0.20936125  0.68312775  1
  C  C709  1  0.32511000  0.20936125  0.88312775  1
  C  C710  1  0.32511000  0.08436125  0.10812775  1
  C  C711  1  0.32511000  0.08436125  0.30812775  1
  C  C712  1  0.32511000  0.08436125  0.50812775  1
  C  C713  1  0.32511000  0.08436125  0.70812775  1
  C  C714  1  0.32511000  0.08436125  0.90812775  1
  C  C715  1  0.32511000  0.70936125  0.00812775  1
  C  C716  1  0.32511000  0.70936125  0.20812775  1
  C  C717  1  0.32511000  0.70936125  0.40812775  1
  C  C718  1  0.32511000  0.70936125  0.60812775  1
  C  C719  1  0.32511000  0.70936125  0.80812775  1
  C  C720  1  0.32511000  0.58436125  0.03312775  1
  C  C721  1  0.32511000  0.58436125  0.23312775  1
  C  C722  1  0.32511000  0.58436125  0.43312775  1
  C  C723  1  0.32511000  0.58436125  0.63312775  1
  C  C724  1  0.32511000  0.58436125  0.83312775  1
  C  C725  1  0.32511000  0.45936125  0.05812775  1
  C  C726  1  0.32511000  0.45936125  0.25812775  1
  C  C727  1  0.32511000  0.45936125  0.45812775  1
  C  C728  1  0.32511000  0.45936125  0.65812775  1
  C  C729  1  0.32511000  0.45936125  0.85812775  1
  C  C730  1  0.32511000  0.33436125  0.08312775  1
  C  C731  1  0.32511000  0.33436125  0.28312775  1
  C  C732  1  0.32511000  0.33436125  0.48312775  1
  C  C733  1  0.32511000  0.33436125  0.68312775  1
  C  C734  1  0.32511000  0.33436125  0.88312775  1
  C  C735  1  0.32511000  0.20936125  0.10812775  1
  C  C736  1  0.32511000  0.20936125  0.30812775  1
  C  C737  1  0.32511000  0.20936125  0.50812775  1
  C  C738  1  0.32511000  0.20936125  0.70812775  1
  C  C739  1  0.32511000  0.20936125  0.90812775  1
  C  C740  1  0.32511000  0.08436125  0.13312775  1
  C  C741  1  0.32511000  0.08436125  0.33312775  1
  C  C742  1  0.32511000  0.08436125  0.53312775  1
  C  C743  1  0.32511000  0.08436125  0.73312775  1
  C  C744  1  0.32511000  0.08436125  0.93312775  1
  C  C745  1  0.32511000  0.83436125  0.00812775  1
  C  C746  1  0.32511000  0.83436125  0.20812775  1
  C  C747  1  0.32511000  0.83436125  0.40812775  1
  C  C748  1  0.32511000  0.83436125  0.60812775  1
  C  C749  1  0.32511000  0.83436125  0.80812775  1
  C  C750  1  0.32511000  0.70936125  0.03312775  1
  C  C751  1  0.32511000  0.70936125  0.23312775  1
  C  C752  1  0.32511000  0.70936125  0.43312775  1
  C  C753  1  0.32511000  0.70936125  0.63312775  1
  C  C754  1  0.32511000  0.70936125  0.83312775  1
  C  C755  1  0.32511000  0.58436125  0.05812775  1
  C  C756  1  0.32511000  0.58436125  0.25812775  1
  C  C757  1  0.32511000  0.58436125  0.45812775  1
  C  C758  1  0.32511000  0.58436125  0.65812775  1
  C  C759  1  0.32511000  0.58436125  0.85812775  1
  C  C760  1  0.32511000  0.45936125  0.08312775  1
  C  C761  1  0.32511000  0.45936125  0.28312775  1
  C  C762  1  0.32511000  0.45936125  0.48312775  1
  C  C763  1  0.32511000  0.45936125  0.68312775  1
  C  C764  1  0.32511000  0.45936125  0.88312775  1
  C  C765  1  0.32511000  0.33436125  0.10812775  1
  C  C766  1  0.32511000  0.33436125  0.30812775  1
  C  C767  1  0.32511000  0.33436125  0.50812775  1
  C  C768  1  0.32511000  0.33436125  0.70812775  1
  C  C769  1  0.32511000  0.33436125  0.90812775  1
  C  C770  1  0.32511000  0.20936125  0.13312775  1
  C  C771  1  0.32511000  0.20936125  0.33312775  1
  C  C772  1  0.32511000  0.20936125  0.53312775  1
  C  C773  1  0.32511000  0.20936125  0.73312775  1
  C  C774  1  0.32511000  0.20936125  0.93312775  1
  C  C775  1  0.32511000  0.08436125  0.15812775  1
  C  C776  1  0.32511000  0.08436125  0.35812775  1
  C  C777  1  0.32511000  0.08436125  0.55812775  1
  C  C778  1  0.32511000  0.08436125  0.75812775  1
  C  C779  1  0.32511000  0.08436125  0.95812775  1
  C  C780  1  0.32511000  0.95936125  0.00812775  1
  C  C781  1  0.32511000  0.95936125  0.20812775  1
  C  C782  1  0.32511000  0.95936125  0.40812775  1
  C  C783  1  0.32511000  0.95936125  0.60812775  1
  C  C784  1  0.32511000  0.95936125  0.80812775  1
  C  C785  1  0.32511000  0.83436125  0.03312775  1
  C  C786  1  0.32511000  0.83436125  0.23312775  1
  C  C787  1  0.32511000  0.83436125  0.43312775  1
  C  C788  1  0.32511000  0.83436125  0.63312775  1
  C  C789  1  0.32511000  0.83436125  0.83312775  1
  C  C790  1  0.32511000  0.70936125  0.05812775  1
  C  C791  1  0.32511000  0.70936125  0.25812775  1
  C  C792  1  0.32511000  0.70936125  0.45812775  1
  C  C793  1  0.32511000  0.70936125  0.65812775  1
  C  C794  1  0.32511000  0.70936125  0.85812775  1
  C  C795  1  0.32511000  0.58436125  0.08312775  1
  C  C796  1  0.32511000  0.58436125  0.28312775  1
  C  C797  1  0.32511000  0.58436125  0.48312775  1
  C  C798  1  0.32511000  0.58436125  0.68312775  1
  C  C799  1  0.32511000  0.58436125  0.88312775  1
  C  C800  1  0.32511000  0.45936125  0.10812775  1
  C  C801  1  0.32511000  0.45936125  0.30812775  1
  C  C802  1  0.32511000  0.45936125  0.50812775  1
  C  C803  1  0.32511000  0.45936125  0.70812775  1
  C  C804  1  0.32511000  0.45936125  0.90812775  1
  C  C805  1  0.32511000  0.33436125  0.13312775  1
  C  C806  1  0.32511000  0.33436125  0.33312775  1
  C  C807  1  0.32511000  0.33436125  0.53312775  1
  C  C808  1  0.32511000  0.33436125  0.73312775  1
  C  C809  1  0.32511000  0.33436125  0.93312775  1
  C  C810  1  0.32511000  0.20936125  0.15812775  1
  C  C811  1  0.32511000  0.20936125  0.35812775  1
  C  C812  1  0.32511000  0.20936125  0.55812775  1
  C  C813  1  0.32511000  0.20936125  0.75812775  1
  C  C814  1  0.32511000  0.20936125  0.95812775  1
  C  C815  1  0.32511000  0.08436125  0.18312775  1
  C  C816  1  0.32511000  0.08436125  0.38312775  1
  C  C817  1  0.32511000  0.08436125  0.58312775  1
  C  C818  1  0.32511000  0.08436125  0.78312775  1
  C  C819  1  0.32511000  0.08436125  0.98312775  1
  C  C820  1  0.32511000  0.95936125  0.03312775  1
  C  C821  1  0.32511000  0.95936125  0.23312775  1
  C  C822  1  0.32511000  0.95936125  0.43312775  1
  C  C823  1  0.32511000  0.95936125  0.63312775  1
  C  C824  1  0.32511000  0.95936125  0.83312775  1
  C  C825  1  0.32511000  0.83436125  0.05812775  1
  C  C826  1  0.32511000  0.83436125  0.25812775  1
  C  C827  1  0.32511000  0.83436125  0.45812775  1
  C  C828  1  0.32511000  0.83436125  0.65812775  1
  C  C829  1  0.32511000  0.83436125  0.85812775  1
  C  C830  1  0.32511000  0.70936125  0.08312775  1
  C  C831  1  0.32511000  0.70936125  0.28312775  1
  C  C832  1  0.32511000  0.70936125  0.48312775  1
  C  C833  1  0.32511000  0.70936125  0.68312775  1
  C  C834  1  0.32511000  0.70936125  0.88312775  1
  C  C835  1  0.32511000  0.58436125  0.10812775  1
  C  C836  1  0.32511000  0.58436125  0.30812775  1
  C  C837  1  0.32511000  0.58436125  0.50812775  1
  C  C838  1  0.32511000  0.58436125  0.70812775  1
  C  C839  1  0.32511000  0.58436125  0.90812775  1
  C  C840  1  0.32511000  0.45936125  0.13312775  1
  C  C841  1  0.32511000  0.45936125  0.33312775  1
  C  C842  1  0.32511000  0.45936125  0.53312775  1
  C  C843  1  0.32511000  0.45936125  0.73312775  1
  C  C844  1  0.32511000  0.45936125  0.93312775  1
  C  C845  1  0.32511000  0.33436125  0.15812775  1
  C  C846  1  0.32511000  0.33436125  0.35812775  1
  C  C847  1  0.32511000  0.33436125  0.55812775  1
  C  C848  1  0.32511000  0.33436125  0.75812775  1
  C  C849  1  0.32511000  0.33436125  0.95812775  1
  C  C850  1  0.32511000  0.20936125  0.18312775  1
  C  C851  1  0.32511000  0.20936125  0.38312775  1
  C  C852  1  0.32511000  0.20936125  0.58312775  1
  C  C853  1  0.32511000  0.20936125  0.78312775  1
  C  C854  1  0.32511000  0.20936125  0.98312775  1
  C  C855  1  0.32511000  0.95936125  0.05812775  1
  C  C856  1  0.32511000  0.95936125  0.25812775  1
  C  C857  1  0.32511000  0.95936125  0.45812775  1
  C  C858  1  0.32511000  0.95936125  0.65812775  1
  C  C859  1  0.32511000  0.95936125  0.85812775  1
  C  C860  1  0.32511000  0.83436125  0.08312775  1
  C  C861  1  0.32511000  0.83436125  0.28312775  1
  C  C862  1  0.32511000  0.83436125  0.48312775  1
  C  C863  1  0.32511000  0.83436125  0.68312775  1
  C  C864  1  0.32511000  0.83436125  0.88312775  1
  C  C865  1  0.32511000  0.70936125  0.10812775  1
  C  C866  1  0.32511000  0.70936125  0.30812775  1
  C  C867  1  0.32511000  0.70936125  0.50812775  1
  C  C868  1  0.32511000  0.70936125  0.70812775  1
  C  C869  1  0.32511000  0.70936125  0.90812775  1
  C  C870  1  0.32511000  0.58436125  0.13312775  1
  C  C871  1  0.32511000  0.58436125  0.33312775  1
  C  C872  1  0.32511000  0.58436125  0.53312775  1
  C  C873  1  0.32511000  0.58436125  0.73312775  1
  C  C874  1  0.32511000  0.58436125  0.93312775  1
  C  C875  1  0.32511000  0.45936125  0.15812775  1
  C  C876  1  0.32511000  0.45936125  0.35812775  1
  C  C877  1  0.32511000  0.45936125  0.55812775  1
  C  C878  1  0.32511000  0.45936125  0.75812775  1
  C  C879  1  0.32511000  0.45936125  0.95812775  1
  C  C880  1  0.32511000  0.33436125  0.18312775  1
  C  C881  1  0.32511000  0.33436125  0.38312775  1
  C  C882  1  0.32511000  0.33436125  0.58312775  1
  C  C883  1  0.32511000  0.33436125  0.78312775  1
  C  C884  1  0.32511000  0.33436125  0.98312775  1
  C  C885  1  0.32511000  0.95936125  0.08312775  1
  C  C886  1  0.32511000  0.95936125  0.28312775  1
  C  C887  1  0.32511000  0.95936125  0.48312775  1
  C  C888  1  0.32511000  0.95936125  0.68312775  1
  C  C889  1  0.32511000  0.95936125  0.88312775  1
  C  C890  1  0.32511000  0.83436125  0.10812775  1
  C  C891  1  0.32511000  0.83436125  0.30812775  1
  C  C892  1  0.32511000  0.83436125  0.50812775  1
  C  C893  1  0.32511000  0.83436125  0.70812775  1
  C  C894  1  0.32511000  0.83436125  0.90812775  1
  C  C895  1  0.32511000  0.70936125  0.13312775  1
  C  C896  1  0.32511000  0.70936125  0.33312775  1
  C  C897  1  0.32511000  0.70936125  0.53312775  1
  C  C898  1  0.32511000  0.70936125  0.73312775  1
  C  C899  1  0.32511000  0.70936125  0.93312775  1
  C  C900  1  0.32511000  0.58436125  0.15812775  1
  C  C901  1  0.32511000  0.58436125  0.35812775  1
  C  C902  1  0.32511000  0.58436125  0.55812775  1
  C  C903  1  0.32511000  0.58436125  0.75812775  1
  C  C904  1  0.32511000  0.58436125  0.95812775  1
  C  C905  1  0.32511000  0.45936125  0.18312775  1
  C  C906  1  0.32511000  0.45936125  0.38312775  1
  C  C907  1  0.32511000  0.45936125  0.58312775  1
  C  C908  1  0.32511000  0.45936125  0.78312775  1
  C  C909  1  0.32511000  0.45936125  0.98312775  1
  C  C910  1  0.32511000  0.95936125  0.10812775  1
  C  C911  1  0.32511000  0.95936125  0.30812775  1
  C  C912  1  0.32511000  0.95936125  0.50812775  1
  C  C913  1  0.32511000  0.95936125  0.70812775  1
  C  C914  1  0.32511000  0.95936125  0.90812775  1
  C  C915  1  0.32511000  0.83436125  0.13312775  1
  C  C916  1  0.32511000  0.83436125  0.33312775  1
  C  C917  1  0.32511000  0.83436125  0.53312775  1
  C  C918  1  0.32511000  0.83436125  0.73312775  1
  C  C919  1  0.32511000  0.83436125  0.93312775  1
  C  C920  1  0.32511000  0.70936125  0.15812775  1
  C  C921  1  0.32511000  0.70936125  0.35812775  1
  C  C922  1  0.32511000  0.70936125  0.55812775  1
  C  C923  1  0.32511000  0.70936125  0.75812775  1
  C  C924  1  0.32511000  0.70936125  0.95812775  1
  C  C925  1  0.32511000  0.58436125  0.18312775  1
  C  C926  1  0.32511000  0.58436125  0.38312775  1
  C  C927  1  0.32511000  0.58436125  0.58312775  1
  C  C928  1  0.32511000  0.58436125  0.78312775  1
  C  C929  1  0.32511000  0.58436125  0.98312775  1
  C  C930  1  0.32511000  0.95936125  0.13312775  1
  C  C931  1  0.32511000  0.95936125  0.33312775  1
  C  C932  1  0.32511000  0.95936125  0.53312775  1
  C  C933  1  0.32511000  0.95936125  0.73312775  1
  C  C934  1  0.32511000  0.95936125  0.93312775  1
  C  C935  1  0.32511000  0.83436125  0.15812775  1
  C  C936  1  0.32511000  0.83436125  0.35812775  1
  C  C937  1  0.32511000  0.83436125  0.55812775  1
  C  C938  1  0.32511000  0.83436125  0.75812775  1
  C  C939  1  0.32511000  0.83436125  0.95812775  1
  C  C940  1  0.32511000  0.70936125  0.18312775  1
  C  C941  1  0.32511000  0.70936125  0.38312775  1
  C  C942  1  0.32511000  0.70936125  0.58312775  1
  C  C943  1  0.32511000  0.70936125  0.78312775  1
  C  C944  1  0.32511000  0.70936125  0.98312775  1
  C  C945  1  0.32511000  0.95936125  0.15812775  1
  C  C946  1  0.32511000  0.95936125  0.35812775  1
  C  C947  1  0.32511000  0.95936125  0.55812775  1
  C  C948  1  0.32511000  0.95936125  0.75812775  1
  C  C949  1  0.32511000  0.95936125  0.95812775  1
  C  C950  1  0.32511000  0.83436125  0.18312775  1
  C  C951  1  0.32511000  0.83436125  0.38312775  1
  C  C952  1  0.32511000  0.83436125  0.58312775  1
  C  C953  1  0.32511000  0.83436125  0.78312775  1
  C  C954  1  0.32511000  0.83436125  0.98312775  1
  C  C955  1  0.32511000  0.95936125  0.18312775  1
  C  C956  1  0.32511000  0.95936125  0.38312775  1
  C  C957  1  0.32511000  0.95936125  0.58312775  1
  C  C958  1  0.32511000  0.95936125  0.78312775  1
  C  C959  1  0.32511000  0.95936125  0.98312775  1
  C  C960  1  0.72507200  0.03436600  0.01812680  1
  C  C961  1  0.72507200  0.03436600  0.21812680  1
  C  C962  1  0.72507200  0.03436600  0.41812680  1
  C  C963  1  0.72507200  0.03436600  0.61812680  1
  C  C964  1  0.72507200  0.03436600  0.81812680  1
  C  C965  1  0.72507200  0.15936600  0.01812680  1
  C  C966  1  0.72507200  0.15936600  0.21812680  1
  C  C967  1  0.72507200  0.15936600  0.41812680  1
  C  C968  1  0.72507200  0.15936600  0.61812680  1
  C  C969  1  0.72507200  0.15936600  0.81812680  1
  C  C970  1  0.72507200  0.03436600  0.04312680  1
  C  C971  1  0.72507200  0.03436600  0.24312680  1
  C  C972  1  0.72507200  0.03436600  0.44312680  1
  C  C973  1  0.72507200  0.03436600  0.64312680  1
  C  C974  1  0.72507200  0.03436600  0.84312680  1
  C  C975  1  0.72507200  0.28436600  0.01812680  1
  C  C976  1  0.72507200  0.28436600  0.21812680  1
  C  C977  1  0.72507200  0.28436600  0.41812680  1
  C  C978  1  0.72507200  0.28436600  0.61812680  1
  C  C979  1  0.72507200  0.28436600  0.81812680  1
  C  C980  1  0.72507200  0.15936600  0.04312680  1
  C  C981  1  0.72507200  0.15936600  0.24312680  1
  C  C982  1  0.72507200  0.15936600  0.44312680  1
  C  C983  1  0.72507200  0.15936600  0.64312680  1
  C  C984  1  0.72507200  0.15936600  0.84312680  1
  C  C985  1  0.72507200  0.03436600  0.06812680  1
  C  C986  1  0.72507200  0.03436600  0.26812680  1
  C  C987  1  0.72507200  0.03436600  0.46812680  1
  C  C988  1  0.72507200  0.03436600  0.66812680  1
  C  C989  1  0.72507200  0.03436600  0.86812680  1
  C  C990  1  0.72507200  0.40936600  0.01812680  1
  C  C991  1  0.72507200  0.40936600  0.21812680  1
  C  C992  1  0.72507200  0.40936600  0.41812680  1
  C  C993  1  0.72507200  0.40936600  0.61812680  1
  C  C994  1  0.72507200  0.40936600  0.81812680  1
  C  C995  1  0.72507200  0.28436600  0.04312680  1
  C  C996  1  0.72507200  0.28436600  0.24312680  1
  C  C997  1  0.72507200  0.28436600  0.44312680  1
  C  C998  1  0.72507200  0.28436600  0.64312680  1
  C  C999  1  0.72507200  0.28436600  0.84312680  1
  C  C1000  1  0.72507200  0.15936600  0.06812680  1
  C  C1001  1  0.72507200  0.15936600  0.26812680  1
  C  C1002  1  0.72507200  0.15936600  0.46812680  1
  C  C1003  1  0.72507200  0.15936600  0.66812680  1
  C  C1004  1  0.72507200  0.15936600  0.86812680  1
  C  C1005  1  0.72507200  0.03436600  0.09312680  1
  C  C1006  1  0.72507200  0.03436600  0.29312680  1
  C  C1007  1  0.72507200  0.03436600  0.49312680  1
  C  C1008  1  0.72507200  0.03436600  0.69312680  1
  C  C1009  1  0.72507200  0.03436600  0.89312680  1
  C  C1010  1  0.72507200  0.53436600  0.01812680  1
  C  C1011  1  0.72507200  0.53436600  0.21812680  1
  C  C1012  1  0.72507200  0.53436600  0.41812680  1
  C  C1013  1  0.72507200  0.53436600  0.61812680  1
  C  C1014  1  0.72507200  0.53436600  0.81812680  1
  C  C1015  1  0.72507200  0.40936600  0.04312680  1
  C  C1016  1  0.72507200  0.40936600  0.24312680  1
  C  C1017  1  0.72507200  0.40936600  0.44312680  1
  C  C1018  1  0.72507200  0.40936600  0.64312680  1
  C  C1019  1  0.72507200  0.40936600  0.84312680  1
  C  C1020  1  0.72507200  0.28436600  0.06812680  1
  C  C1021  1  0.72507200  0.28436600  0.26812680  1
  C  C1022  1  0.72507200  0.28436600  0.46812680  1
  C  C1023  1  0.72507200  0.28436600  0.66812680  1
  C  C1024  1  0.72507200  0.28436600  0.86812680  1
  C  C1025  1  0.72507200  0.15936600  0.09312680  1
  C  C1026  1  0.72507200  0.15936600  0.29312680  1
  C  C1027  1  0.72507200  0.15936600  0.49312680  1
  C  C1028  1  0.72507200  0.15936600  0.69312680  1
  C  C1029  1  0.72507200  0.15936600  0.89312680  1
  C  C1030  1  0.72507200  0.03436600  0.11812680  1
  C  C1031  1  0.72507200  0.03436600  0.31812680  1
  C  C1032  1  0.72507200  0.03436600  0.51812680  1
  C  C1033  1  0.72507200  0.03436600  0.71812680  1
  C  C1034  1  0.72507200  0.03436600  0.91812680  1
  C  C1035  1  0.72507200  0.65936600  0.01812680  1
  C  C1036  1  0.72507200  0.65936600  0.21812680  1
  C  C1037  1  0.72507200  0.65936600  0.41812680  1
  C  C1038  1  0.72507200  0.65936600  0.61812680  1
  C  C1039  1  0.72507200  0.65936600  0.81812680  1
  C  C1040  1  0.72507200  0.53436600  0.04312680  1
  C  C1041  1  0.72507200  0.53436600  0.24312680  1
  C  C1042  1  0.72507200  0.53436600  0.44312680  1
  C  C1043  1  0.72507200  0.53436600  0.64312680  1
  C  C1044  1  0.72507200  0.53436600  0.84312680  1
  C  C1045  1  0.72507200  0.40936600  0.06812680  1
  C  C1046  1  0.72507200  0.40936600  0.26812680  1
  C  C1047  1  0.72507200  0.40936600  0.46812680  1
  C  C1048  1  0.72507200  0.40936600  0.66812680  1
  C  C1049  1  0.72507200  0.40936600  0.86812680  1
  C  C1050  1  0.72507200  0.28436600  0.09312680  1
  C  C1051  1  0.72507200  0.28436600  0.29312680  1
  C  C1052  1  0.72507200  0.28436600  0.49312680  1
  C  C1053  1  0.72507200  0.28436600  0.69312680  1
  C  C1054  1  0.72507200  0.28436600  0.89312680  1
  C  C1055  1  0.72507200  0.15936600  0.11812680  1
  C  C1056  1  0.72507200  0.15936600  0.31812680  1
  C  C1057  1  0.72507200  0.15936600  0.51812680  1
  C  C1058  1  0.72507200  0.15936600  0.71812680  1
  C  C1059  1  0.72507200  0.15936600  0.91812680  1
  C  C1060  1  0.72507200  0.03436600  0.14312680  1
  C  C1061  1  0.72507200  0.03436600  0.34312680  1
  C  C1062  1  0.72507200  0.03436600  0.54312680  1
  C  C1063  1  0.72507200  0.03436600  0.74312680  1
  C  C1064  1  0.72507200  0.03436600  0.94312680  1
  C  C1065  1  0.72507200  0.78436600  0.01812680  1
  C  C1066  1  0.72507200  0.78436600  0.21812680  1
  C  C1067  1  0.72507200  0.78436600  0.41812680  1
  C  C1068  1  0.72507200  0.78436600  0.61812680  1
  C  C1069  1  0.72507200  0.78436600  0.81812680  1
  C  C1070  1  0.72507200  0.65936600  0.04312680  1
  C  C1071  1  0.72507200  0.65936600  0.24312680  1
  C  C1072  1  0.72507200  0.65936600  0.44312680  1
  C  C1073  1  0.72507200  0.65936600  0.64312680  1
  C  C1074  1  0.72507200  0.65936600  0.84312680  1
  C  C1075  1  0.72507200  0.53436600  0.06812680  1
  C  C1076  1  0.72507200  0.53436600  0.26812680  1
  C  C1077  1  0.72507200  0.53436600  0.46812680  1
  C  C1078  1  0.72507200  0.53436600  0.66812680  1
  C  C1079  1  0.72507200  0.53436600  0.86812680  1
  C  C1080  1  0.72507200  0.40936600  0.09312680  1
  C  C1081  1  0.72507200  0.40936600  0.29312680  1
  C  C1082  1  0.72507200  0.40936600  0.49312680  1
  C  C1083  1  0.72507200  0.40936600  0.69312680  1
  C  C1084  1  0.72507200  0.40936600  0.89312680  1
  C  C1085  1  0.72507200  0.28436600  0.11812680  1
  C  C1086  1  0.72507200  0.28436600  0.31812680  1
  C  C1087  1  0.72507200  0.28436600  0.51812680  1
  C  C1088  1  0.72507200  0.28436600  0.71812680  1
  C  C1089  1  0.72507200  0.28436600  0.91812680  1
  C  C1090  1  0.72507200  0.15936600  0.14312680  1
  C  C1091  1  0.72507200  0.15936600  0.34312680  1
  C  C1092  1  0.72507200  0.15936600  0.54312680  1
  C  C1093  1  0.72507200  0.15936600  0.74312680  1
  C  C1094  1  0.72507200  0.15936600  0.94312680  1
  C  C1095  1  0.72507200  0.03436600  0.16812680  1
  C  C1096  1  0.72507200  0.03436600  0.36812680  1
  C  C1097  1  0.72507200  0.03436600  0.56812680  1
  C  C1098  1  0.72507200  0.03436600  0.76812680  1
  C  C1099  1  0.72507200  0.03436600  0.96812680  1
  C  C1100  1  0.72507200  0.90936600  0.01812680  1
  C  C1101  1  0.72507200  0.90936600  0.21812680  1
  C  C1102  1  0.72507200  0.90936600  0.41812680  1
  C  C1103  1  0.72507200  0.90936600  0.61812680  1
  C  C1104  1  0.72507200  0.90936600  0.81812680  1
  C  C1105  1  0.72507200  0.78436600  0.04312680  1
  C  C1106  1  0.72507200  0.78436600  0.24312680  1
  C  C1107  1  0.72507200  0.78436600  0.44312680  1
  C  C1108  1  0.72507200  0.78436600  0.64312680  1
  C  C1109  1  0.72507200  0.78436600  0.84312680  1
  C  C1110  1  0.72507200  0.65936600  0.06812680  1
  C  C1111  1  0.72507200  0.65936600  0.26812680  1
  C  C1112  1  0.72507200  0.65936600  0.46812680  1
  C  C1113  1  0.72507200  0.65936600  0.66812680  1
  C  C1114  1  0.72507200  0.65936600  0.86812680  1
  C  C1115  1  0.72507200  0.53436600  0.09312680  1
  C  C1116  1  0.72507200  0.53436600  0.29312680  1
  C  C1117  1  0.72507200  0.53436600  0.49312680  1
  C  C1118  1  0.72507200  0.53436600  0.69312680  1
  C  C1119  1  0.72507200  0.53436600  0.89312680  1
  C  C1120  1  0.72507200  0.40936600  0.11812680  1
  C  C1121  1  0.72507200  0.40936600  0.31812680  1
  C  C1122  1  0.72507200  0.40936600  0.51812680  1
  C  C1123  1  0.72507200  0.40936600  0.71812680  1
  C  C1124  1  0.72507200  0.40936600  0.91812680  1
  C  C1125  1  0.72507200  0.28436600  0.14312680  1
  C  C1126  1  0.72507200  0.28436600  0.34312680  1
  C  C1127  1  0.72507200  0.28436600  0.54312680  1
  C  C1128  1  0.72507200  0.28436600  0.74312680  1
  C  C1129  1  0.72507200  0.28436600  0.94312680  1
  C  C1130  1  0.72507200  0.15936600  0.16812680  1
  C  C1131  1  0.72507200  0.15936600  0.36812680  1
  C  C1132  1  0.72507200  0.15936600  0.56812680  1
  C  C1133  1  0.72507200  0.15936600  0.76812680  1
  C  C1134  1  0.72507200  0.15936600  0.96812680  1
  C  C1135  1  0.72507200  0.03436600  0.19312680  1
  C  C1136  1  0.72507200  0.03436600  0.39312680  1
  C  C1137  1  0.72507200  0.03436600  0.59312680  1
  C  C1138  1  0.72507200  0.03436600  0.79312680  1
  C  C1139  1  0.72507200  0.03436600  0.99312680  1
  C  C1140  1  0.72507200  0.90936600  0.04312680  1
  C  C1141  1  0.72507200  0.90936600  0.24312680  1
  C  C1142  1  0.72507200  0.90936600  0.44312680  1
  C  C1143  1  0.72507200  0.90936600  0.64312680  1
  C  C1144  1  0.72507200  0.90936600  0.84312680  1
  C  C1145  1  0.72507200  0.78436600  0.06812680  1
  C  C1146  1  0.72507200  0.78436600  0.26812680  1
  C  C1147  1  0.72507200  0.78436600  0.46812680  1
  C  C1148  1  0.72507200  0.78436600  0.66812680  1
  C  C1149  1  0.72507200  0.78436600  0.86812680  1
  C  C1150  1  0.72507200  0.65936600  0.09312680  1
  C  C1151  1  0.72507200  0.65936600  0.29312680  1
  C  C1152  1  0.72507200  0.65936600  0.49312680  1
  C  C1153  1  0.72507200  0.65936600  0.69312680  1
  C  C1154  1  0.72507200  0.65936600  0.89312680  1
  C  C1155  1  0.72507200  0.53436600  0.11812680  1
  C  C1156  1  0.72507200  0.53436600  0.31812680  1
  C  C1157  1  0.72507200  0.53436600  0.51812680  1
  C  C1158  1  0.72507200  0.53436600  0.71812680  1
  C  C1159  1  0.72507200  0.53436600  0.91812680  1
  C  C1160  1  0.72507200  0.40936600  0.14312680  1
  C  C1161  1  0.72507200  0.40936600  0.34312680  1
  C  C1162  1  0.72507200  0.40936600  0.54312680  1
  C  C1163  1  0.72507200  0.40936600  0.74312680  1
  C  C1164  1  0.72507200  0.40936600  0.94312680  1
  C  C1165  1  0.72507200  0.28436600  0.16812680  1
  C  C1166  1  0.72507200  0.28436600  0.36812680  1
  C  C1167  1  0.72507200  0.28436600  0.56812680  1
  C  C1168  1  0.72507200  0.28436600  0.76812680  1
  C  C1169  1  0.72507200  0.28436600  0.96812680  1
  C  C1170  1  0.72507200  0.15936600  0.19312680  1
  C  C1171  1  0.72507200  0.15936600  0.39312680  1
  C  C1172  1  0.72507200  0.15936600  0.59312680  1
  C  C1173  1  0.72507200  0.15936600  0.79312680  1
  C  C1174  1  0.72507200  0.15936600  0.99312680  1
  C  C1175  1  0.72507200  0.90936600  0.06812680  1
  C  C1176  1  0.72507200  0.90936600  0.26812680  1
  C  C1177  1  0.72507200  0.90936600  0.46812680  1
  C  C1178  1  0.72507200  0.90936600  0.66812680  1
  C  C1179  1  0.72507200  0.90936600  0.86812680  1
  C  C1180  1  0.72507200  0.78436600  0.09312680  1
  C  C1181  1  0.72507200  0.78436600  0.29312680  1
  C  C1182  1  0.72507200  0.78436600  0.49312680  1
  C  C1183  1  0.72507200  0.78436600  0.69312680  1
  C  C1184  1  0.72507200  0.78436600  0.89312680  1
  C  C1185  1  0.72507200  0.65936600  0.11812680  1
  C  C1186  1  0.72507200  0.65936600  0.31812680  1
  C  C1187  1  0.72507200  0.65936600  0.51812680  1
  C  C1188  1  0.72507200  0.65936600  0.71812680  1
  C  C1189  1  0.72507200  0.65936600  0.91812680  1
  C  C1190  1  0.72507200  0.53436600  0.14312680  1
  C  C1191  1  0.72507200  0.53436600  0.34312680  1
  C  C1192  1  0.72507200  0.53436600  0.54312680  1
  C  C1193  1  0.72507200  0.53436600  0.74312680  1
  C  C1194  1  0.72507200  0.53436600  0.94312680  1
  C  C1195  1  0.72507200  0.40936600  0.16812680  1
  C  C1196  1  0.72507200  0.40936600  0.36812680  1
  C  C1197  1  0.72507200  0.40936600  0.56812680  1
  C  C1198  1  0.72507200  0.40936600  0.76812680  1
  C  C1199  1  0.72507200  0.40936600  0.96812680  1
  C  C1200  1  0.72507200  0.28436600  0.19312680  1
  C  C1201  1  0.72507200  0.28436600  0.39312680  1
  C  C1202  1  0.72507200  0.28436600  0.59312680  1
  C  C1203  1  0.72507200  0.28436600  0.79312680  1
  C  C1204  1  0.72507200  0.28436600  0.99312680  1
  C  C1205  1  0.72507200  0.90936600  0.09312680  1
  C  C1206  1  0.72507200  0.90936600  0.29312680  1
  C  C1207  1  0.72507200  0.90936600  0.49312680  1
  C  C1208  1  0.72507200  0.90936600  0.69312680  1
  C  C1209  1  0.72507200  0.90936600  0.89312680  1
  C  C1210  1  0.72507200  0.78436600  0.11812680  1
  C  C1211  1  0.72507200  0.78436600  0.31812680  1
  C  C1212  1  0.72507200  0.78436600  0.51812680  1
  C  C1213  1  0.72507200  0.78436600  0.71812680  1
  C  C1214  1  0.72507200  0.78436600  0.91812680  1
  C  C1215  1  0.72507200  0.65936600  0.14312680  1
  C  C1216  1  0.72507200  0.65936600  0.34312680  1
  C  C1217  1  0.72507200  0.65936600  0.54312680  1
  C  C1218  1  0.72507200  0.65936600  0.74312680  1
  C  C1219  1  0.72507200  0.65936600  0.94312680  1
  C  C1220  1  0.72507200  0.53436600  0.16812680  1
  C  C1221  1  0.72507200  0.53436600  0.36812680  1
  C  C1222  1  0.72507200  0.53436600  0.56812680  1
  C  C1223  1  0.72507200  0.53436600  0.76812680  1
  C  C1224  1  0.72507200  0.53436600  0.96812680  1
  C  C1225  1  0.72507200  0.40936600  0.19312680  1
  C  C1226  1  0.72507200  0.40936600  0.39312680  1
  C  C1227  1  0.72507200  0.40936600  0.59312680  1
  C  C1228  1  0.72507200  0.40936600  0.79312680  1
  C  C1229  1  0.72507200  0.40936600  0.99312680  1
  C  C1230  1  0.72507200  0.90936600  0.11812680  1
  C  C1231  1  0.72507200  0.90936600  0.31812680  1
  C  C1232  1  0.72507200  0.90936600  0.51812680  1
  C  C1233  1  0.72507200  0.90936600  0.71812680  1
  C  C1234  1  0.72507200  0.90936600  0.91812680  1
  C  C1235  1  0.72507200  0.78436600  0.14312680  1
  C  C1236  1  0.72507200  0.78436600  0.34312680  1
  C  C1237  1  0.72507200  0.78436600  0.54312680  1
  C  C1238  1  0.72507200  0.78436600  0.74312680  1
  C  C1239  1  0.72507200  0.78436600  0.94312680  1
  C  C1240  1  0.72507200  0.65936600  0.16812680  1
  C  C1241  1  0.72507200  0.65936600  0.36812680  1
  C  C1242  1  0.72507200  0.65936600  0.56812680  1
  C  C1243  1  0.72507200  0.65936600  0.76812680  1
  C  C1244  1  0.72507200  0.65936600  0.96812680  1
  C  C1245  1  0.72507200  0.53436600  0.19312680  1
  C  C1246  1  0.72507200  0.53436600  0.39312680  1
  C  C1247  1  0.72507200  0.53436600  0.59312680  1
  C  C1248  1  0.72507200  0.53436600  0.79312680  1
  C  C1249  1  0.72507200  0.53436600  0.99312680  1
  C  C1250  1  0.72507200  0.90936600  0.14312680  1
  C  C1251  1  0.72507200  0.90936600  0.34312680  1
  C  C1252  1  0.72507200  0.90936600  0.54312680  1
  C  C1253  1  0.72507200  0.90936600  0.74312680  1
  C  C1254  1  0.72507200  0.90936600  0.94312680  1
  C  C1255  1  0.72507200  0.78436600  0.16812680  1
  C  C1256  1  0.72507200  0.78436600  0.36812680  1
  C  C1257  1  0.72507200  0.78436600  0.56812680  1
  C  C1258  1  0.72507200  0.78436600  0.76812680  1
  C  C1259  1  0.72507200  0.78436600  0.96812680  1
  C  C1260  1  0.72507200  0.65936600  0.19312680  1
  C  C1261  1  0.72507200  0.65936600  0.39312680  1
  C  C1262  1  0.72507200  0.65936600  0.59312680  1
  C  C1263  1  0.72507200  0.65936600  0.79312680  1
  C  C1264  1  0.72507200  0.65936600  0.99312680  1
  C  C1265  1  0.72507200  0.90936600  0.16812680  1
  C  C1266  1  0.72507200  0.90936600  0.36812680  1
  C  C1267  1  0.72507200  0.90936600  0.56812680  1
  C  C1268  1  0.72507200  0.90936600  0.76812680  1
  C  C1269  1  0.72507200  0.90936600  0.96812680  1
  C  C1270  1  0.72507200  0.78436600  0.19312680  1
  C  C1271  1  0.72507200  0.78436600  0.39312680  1
  C  C1272  1  0.72507200  0.78436600  0.59312680  1
  C  C1273  1  0.72507200  0.78436600  0.79312680  1
  C  C1274  1  0.72507200  0.78436600  0.99312680  1
  C  C1275  1  0.72507200  0.90936600  0.19312680  1
  C  C1276  1  0.72507200  0.90936600  0.39312680  1
  C  C1277  1  0.72507200  0.90936600  0.59312680  1
  C  C1278  1  0.72507200  0.90936600  0.79312680  1
  C  C1279  1  0.72507200  0.90936600  0.99312680  1
  C  C1280  1  0.82501100  0.10520696  0.01229194  1
  C  C1281  1  0.82501100  0.10520696  0.21229194  1
  C  C1282  1  0.82501100  0.10520696  0.41229194  1
  C  C1283  1  0.82501100  0.10520696  0.61229194  1
  C  C1284  1  0.82501100  0.10520696  0.81229194  1
  C  C1285  1  0.82501100  0.23020696  0.01229194  1
  C  C1286  1  0.82501100  0.23020696  0.21229194  1
  C  C1287  1  0.82501100  0.23020696  0.41229194  1
  C  C1288  1  0.82501100  0.23020696  0.61229194  1
  C  C1289  1  0.82501100  0.23020696  0.81229194  1
  C  C1290  1  0.82501100  0.10520696  0.03729194  1
  C  C1291  1  0.82501100  0.10520696  0.23729194  1
  C  C1292  1  0.82501100  0.10520696  0.43729194  1
  C  C1293  1  0.82501100  0.10520696  0.63729194  1
  C  C1294  1  0.82501100  0.10520696  0.83729194  1
  C  C1295  1  0.82501100  0.35520696  0.01229194  1
  C  C1296  1  0.82501100  0.35520696  0.21229194  1
  C  C1297  1  0.82501100  0.35520696  0.41229194  1
  C  C1298  1  0.82501100  0.35520696  0.61229194  1
  C  C1299  1  0.82501100  0.35520696  0.81229194  1
  C  C1300  1  0.82501100  0.23020696  0.03729194  1
  C  C1301  1  0.82501100  0.23020696  0.23729194  1
  C  C1302  1  0.82501100  0.23020696  0.43729194  1
  C  C1303  1  0.82501100  0.23020696  0.63729194  1
  C  C1304  1  0.82501100  0.23020696  0.83729194  1
  C  C1305  1  0.82501100  0.10520696  0.06229194  1
  C  C1306  1  0.82501100  0.10520696  0.26229194  1
  C  C1307  1  0.82501100  0.10520696  0.46229194  1
  C  C1308  1  0.82501100  0.10520696  0.66229194  1
  C  C1309  1  0.82501100  0.10520696  0.86229194  1
  C  C1310  1  0.82501100  0.48020696  0.01229194  1
  C  C1311  1  0.82501100  0.48020696  0.21229194  1
  C  C1312  1  0.82501100  0.48020696  0.41229194  1
  C  C1313  1  0.82501100  0.48020696  0.61229194  1
  C  C1314  1  0.82501100  0.48020696  0.81229194  1
  C  C1315  1  0.82501100  0.35520696  0.03729194  1
  C  C1316  1  0.82501100  0.35520696  0.23729194  1
  C  C1317  1  0.82501100  0.35520696  0.43729194  1
  C  C1318  1  0.82501100  0.35520696  0.63729194  1
  C  C1319  1  0.82501100  0.35520696  0.83729194  1
  C  C1320  1  0.82501100  0.23020696  0.06229194  1
  C  C1321  1  0.82501100  0.23020696  0.26229194  1
  C  C1322  1  0.82501100  0.23020696  0.46229194  1
  C  C1323  1  0.82501100  0.23020696  0.66229194  1
  C  C1324  1  0.82501100  0.23020696  0.86229194  1
  C  C1325  1  0.82501100  0.10520696  0.08729194  1
  C  C1326  1  0.82501100  0.10520696  0.28729194  1
  C  C1327  1  0.82501100  0.10520696  0.48729194  1
  C  C1328  1  0.82501100  0.10520696  0.68729194  1
  C  C1329  1  0.82501100  0.10520696  0.88729194  1
  C  C1330  1  0.82501100  0.60520696  0.01229194  1
  C  C1331  1  0.82501100  0.60520696  0.21229194  1
  C  C1332  1  0.82501100  0.60520696  0.41229194  1
  C  C1333  1  0.82501100  0.60520696  0.61229194  1
  C  C1334  1  0.82501100  0.60520696  0.81229194  1
  C  C1335  1  0.82501100  0.48020696  0.03729194  1
  C  C1336  1  0.82501100  0.48020696  0.23729194  1
  C  C1337  1  0.82501100  0.48020696  0.43729194  1
  C  C1338  1  0.82501100  0.48020696  0.63729194  1
  C  C1339  1  0.82501100  0.48020696  0.83729194  1
  C  C1340  1  0.82501100  0.35520696  0.06229194  1
  C  C1341  1  0.82501100  0.35520696  0.26229194  1
  C  C1342  1  0.82501100  0.35520696  0.46229194  1
  C  C1343  1  0.82501100  0.35520696  0.66229194  1
  C  C1344  1  0.82501100  0.35520696  0.86229194  1
  C  C1345  1  0.82501100  0.23020696  0.08729194  1
  C  C1346  1  0.82501100  0.23020696  0.28729194  1
  C  C1347  1  0.82501100  0.23020696  0.48729194  1
  C  C1348  1  0.82501100  0.23020696  0.68729194  1
  C  C1349  1  0.82501100  0.23020696  0.88729194  1
  C  C1350  1  0.82501100  0.10520696  0.11229194  1
  C  C1351  1  0.82501100  0.10520696  0.31229194  1
  C  C1352  1  0.82501100  0.10520696  0.51229194  1
  C  C1353  1  0.82501100  0.10520696  0.71229194  1
  C  C1354  1  0.82501100  0.10520696  0.91229194  1
  C  C1355  1  0.82501100  0.73020696  0.01229194  1
  C  C1356  1  0.82501100  0.73020696  0.21229194  1
  C  C1357  1  0.82501100  0.73020696  0.41229194  1
  C  C1358  1  0.82501100  0.73020696  0.61229194  1
  C  C1359  1  0.82501100  0.73020696  0.81229194  1
  C  C1360  1  0.82501100  0.60520696  0.03729194  1
  C  C1361  1  0.82501100  0.60520696  0.23729194  1
  C  C1362  1  0.82501100  0.60520696  0.43729194  1
  C  C1363  1  0.82501100  0.60520696  0.63729194  1
  C  C1364  1  0.82501100  0.60520696  0.83729194  1
  C  C1365  1  0.82501100  0.48020696  0.06229194  1
  C  C1366  1  0.82501100  0.48020696  0.26229194  1
  C  C1367  1  0.82501100  0.48020696  0.46229194  1
  C  C1368  1  0.82501100  0.48020696  0.66229194  1
  C  C1369  1  0.82501100  0.48020696  0.86229194  1
  C  C1370  1  0.82501100  0.35520696  0.08729194  1
  C  C1371  1  0.82501100  0.35520696  0.28729194  1
  C  C1372  1  0.82501100  0.35520696  0.48729194  1
  C  C1373  1  0.82501100  0.35520696  0.68729194  1
  C  C1374  1  0.82501100  0.35520696  0.88729194  1
  C  C1375  1  0.82501100  0.23020696  0.11229194  1
  C  C1376  1  0.82501100  0.23020696  0.31229194  1
  C  C1377  1  0.82501100  0.23020696  0.51229194  1
  C  C1378  1  0.82501100  0.23020696  0.71229194  1
  C  C1379  1  0.82501100  0.23020696  0.91229194  1
  C  C1380  1  0.82501100  0.10520696  0.13729194  1
  C  C1381  1  0.82501100  0.10520696  0.33729194  1
  C  C1382  1  0.82501100  0.10520696  0.53729194  1
  C  C1383  1  0.82501100  0.10520696  0.73729194  1
  C  C1384  1  0.82501100  0.10520696  0.93729194  1
  C  C1385  1  0.82501100  0.85520696  0.01229194  1
  C  C1386  1  0.82501100  0.85520696  0.21229194  1
  C  C1387  1  0.82501100  0.85520696  0.41229194  1
  C  C1388  1  0.82501100  0.85520696  0.61229194  1
  C  C1389  1  0.82501100  0.85520696  0.81229194  1
  C  C1390  1  0.82501100  0.73020696  0.03729194  1
  C  C1391  1  0.82501100  0.73020696  0.23729194  1
  C  C1392  1  0.82501100  0.73020696  0.43729194  1
  C  C1393  1  0.82501100  0.73020696  0.63729194  1
  C  C1394  1  0.82501100  0.73020696  0.83729194  1
  C  C1395  1  0.82501100  0.60520696  0.06229194  1
  C  C1396  1  0.82501100  0.60520696  0.26229194  1
  C  C1397  1  0.82501100  0.60520696  0.46229194  1
  C  C1398  1  0.82501100  0.60520696  0.66229194  1
  C  C1399  1  0.82501100  0.60520696  0.86229194  1
  C  C1400  1  0.82501100  0.48020696  0.08729194  1
  C  C1401  1  0.82501100  0.48020696  0.28729194  1
  C  C1402  1  0.82501100  0.48020696  0.48729194  1
  C  C1403  1  0.82501100  0.48020696  0.68729194  1
  C  C1404  1  0.82501100  0.48020696  0.88729194  1
  C  C1405  1  0.82501100  0.35520696  0.11229194  1
  C  C1406  1  0.82501100  0.35520696  0.31229194  1
  C  C1407  1  0.82501100  0.35520696  0.51229194  1
  C  C1408  1  0.82501100  0.35520696  0.71229194  1
  C  C1409  1  0.82501100  0.35520696  0.91229194  1
  C  C1410  1  0.82501100  0.23020696  0.13729194  1
  C  C1411  1  0.82501100  0.23020696  0.33729194  1
  C  C1412  1  0.82501100  0.23020696  0.53729194  1
  C  C1413  1  0.82501100  0.23020696  0.73729194  1
  C  C1414  1  0.82501100  0.23020696  0.93729194  1
  C  C1415  1  0.82501100  0.10520696  0.16229194  1
  C  C1416  1  0.82501100  0.10520696  0.36229194  1
  C  C1417  1  0.82501100  0.10520696  0.56229194  1
  C  C1418  1  0.82501100  0.10520696  0.76229194  1
  C  C1419  1  0.82501100  0.10520696  0.96229194  1
  C  C1420  1  0.82501100  0.98020696  0.01229194  1
  C  C1421  1  0.82501100  0.98020696  0.21229194  1
  C  C1422  1  0.82501100  0.98020696  0.41229194  1
  C  C1423  1  0.82501100  0.98020696  0.61229194  1
  C  C1424  1  0.82501100  0.98020696  0.81229194  1
  C  C1425  1  0.82501100  0.85520696  0.03729194  1
  C  C1426  1  0.82501100  0.85520696  0.23729194  1
  C  C1427  1  0.82501100  0.85520696  0.43729194  1
  C  C1428  1  0.82501100  0.85520696  0.63729194  1
  C  C1429  1  0.82501100  0.85520696  0.83729194  1
  C  C1430  1  0.82501100  0.73020696  0.06229194  1
  C  C1431  1  0.82501100  0.73020696  0.26229194  1
  C  C1432  1  0.82501100  0.73020696  0.46229194  1
  C  C1433  1  0.82501100  0.73020696  0.66229194  1
  C  C1434  1  0.82501100  0.73020696  0.86229194  1
  C  C1435  1  0.82501100  0.60520696  0.08729194  1
  C  C1436  1  0.82501100  0.60520696  0.28729194  1
  C  C1437  1  0.82501100  0.60520696  0.48729194  1
  C  C1438  1  0.82501100  0.60520696  0.68729194  1
  C  C1439  1  0.82501100  0.60520696  0.88729194  1
  C  C1440  1  0.82501100  0.48020696  0.11229194  1
  C  C1441  1  0.82501100  0.48020696  0.31229194  1
  C  C1442  1  0.82501100  0.48020696  0.51229194  1
  C  C1443  1  0.82501100  0.48020696  0.71229194  1
  C  C1444  1  0.82501100  0.48020696  0.91229194  1
  C  C1445  1  0.82501100  0.35520696  0.13729194  1
  C  C1446  1  0.82501100  0.35520696  0.33729194  1
  C  C1447  1  0.82501100  0.35520696  0.53729194  1
  C  C1448  1  0.82501100  0.35520696  0.73729194  1
  C  C1449  1  0.82501100  0.35520696  0.93729194  1
  C  C1450  1  0.82501100  0.23020696  0.16229194  1
  C  C1451  1  0.82501100  0.23020696  0.36229194  1
  C  C1452  1  0.82501100  0.23020696  0.56229194  1
  C  C1453  1  0.82501100  0.23020696  0.76229194  1
  C  C1454  1  0.82501100  0.23020696  0.96229194  1
  C  C1455  1  0.82501100  0.10520696  0.18729194  1
  C  C1456  1  0.82501100  0.10520696  0.38729194  1
  C  C1457  1  0.82501100  0.10520696  0.58729194  1
  C  C1458  1  0.82501100  0.10520696  0.78729194  1
  C  C1459  1  0.82501100  0.10520696  0.98729194  1
  C  C1460  1  0.82501100  0.98020696  0.03729194  1
  C  C1461  1  0.82501100  0.98020696  0.23729194  1
  C  C1462  1  0.82501100  0.98020696  0.43729194  1
  C  C1463  1  0.82501100  0.98020696  0.63729194  1
  C  C1464  1  0.82501100  0.98020696  0.83729194  1
  C  C1465  1  0.82501100  0.85520696  0.06229194  1
  C  C1466  1  0.82501100  0.85520696  0.26229194  1
  C  C1467  1  0.82501100  0.85520696  0.46229194  1
  C  C1468  1  0.82501100  0.85520696  0.66229194  1
  C  C1469  1  0.82501100  0.85520696  0.86229194  1
  C  C1470  1  0.82501100  0.73020696  0.08729194  1
  C  C1471  1  0.82501100  0.73020696  0.28729194  1
  C  C1472  1  0.82501100  0.73020696  0.48729194  1
  C  C1473  1  0.82501100  0.73020696  0.68729194  1
  C  C1474  1  0.82501100  0.73020696  0.88729194  1
  C  C1475  1  0.82501100  0.60520696  0.11229194  1
  C  C1476  1  0.82501100  0.60520696  0.31229194  1
  C  C1477  1  0.82501100  0.60520696  0.51229194  1
  C  C1478  1  0.82501100  0.60520696  0.71229194  1
  C  C1479  1  0.82501100  0.60520696  0.91229194  1
  C  C1480  1  0.82501100  0.48020696  0.13729194  1
  C  C1481  1  0.82501100  0.48020696  0.33729194  1
  C  C1482  1  0.82501100  0.48020696  0.53729194  1
  C  C1483  1  0.82501100  0.48020696  0.73729194  1
  C  C1484  1  0.82501100  0.48020696  0.93729194  1
  C  C1485  1  0.82501100  0.35520696  0.16229194  1
  C  C1486  1  0.82501100  0.35520696  0.36229194  1
  C  C1487  1  0.82501100  0.35520696  0.56229194  1
  C  C1488  1  0.82501100  0.35520696  0.76229194  1
  C  C1489  1  0.82501100  0.35520696  0.96229194  1
  C  C1490  1  0.82501100  0.23020696  0.18729194  1
  C  C1491  1  0.82501100  0.23020696  0.38729194  1
  C  C1492  1  0.82501100  0.23020696  0.58729194  1
  C  C1493  1  0.82501100  0.23020696  0.78729194  1
  C  C1494  1  0.82501100  0.23020696  0.98729194  1
  C  C1495  1  0.82501100  0.98020696  0.06229194  1
  C  C1496  1  0.82501100  0.98020696  0.26229194  1
  C  C1497  1  0.82501100  0.98020696  0.46229194  1
  C  C1498  1  0.82501100  0.98020696  0.66229194  1
  C  C1499  1  0.82501100  0.98020696  0.86229194  1
  C  C1500  1  0.82501100  0.85520696  0.08729194  1
  C  C1501  1  0.82501100  0.85520696  0.28729194  1
  C  C1502  1  0.82501100  0.85520696  0.48729194  1
  C  C1503  1  0.82501100  0.85520696  0.68729194  1
  C  C1504  1  0.82501100  0.85520696  0.88729194  1
  C  C1505  1  0.82501100  0.73020696  0.11229194  1
  C  C1506  1  0.82501100  0.73020696  0.31229194  1
  C  C1507  1  0.82501100  0.73020696  0.51229194  1
  C  C1508  1  0.82501100  0.73020696  0.71229194  1
  C  C1509  1  0.82501100  0.73020696  0.91229194  1
  C  C1510  1  0.82501100  0.60520696  0.13729194  1
  C  C1511  1  0.82501100  0.60520696  0.33729194  1
  C  C1512  1  0.82501100  0.60520696  0.53729194  1
  C  C1513  1  0.82501100  0.60520696  0.73729194  1
  C  C1514  1  0.82501100  0.60520696  0.93729194  1
  C  C1515  1  0.82501100  0.48020696  0.16229194  1
  C  C1516  1  0.82501100  0.48020696  0.36229194  1
  C  C1517  1  0.82501100  0.48020696  0.56229194  1
  C  C1518  1  0.82501100  0.48020696  0.76229194  1
  C  C1519  1  0.82501100  0.48020696  0.96229194  1
  C  C1520  1  0.82501100  0.35520696  0.18729194  1
  C  C1521  1  0.82501100  0.35520696  0.38729194  1
  C  C1522  1  0.82501100  0.35520696  0.58729194  1
  C  C1523  1  0.82501100  0.35520696  0.78729194  1
  C  C1524  1  0.82501100  0.35520696  0.98729194  1
  C  C1525  1  0.82501100  0.98020696  0.08729194  1
  C  C1526  1  0.82501100  0.98020696  0.28729194  1
  C  C1527  1  0.82501100  0.98020696  0.48729194  1
  C  C1528  1  0.82501100  0.98020696  0.68729194  1
  C  C1529  1  0.82501100  0.98020696  0.88729194  1
  C  C1530  1  0.82501100  0.85520696  0.11229194  1
  C  C1531  1  0.82501100  0.85520696  0.31229194  1
  C  C1532  1  0.82501100  0.85520696  0.51229194  1
  C  C1533  1  0.82501100  0.85520696  0.71229194  1
  C  C1534  1  0.82501100  0.85520696  0.91229194  1
  C  C1535  1  0.82501100  0.73020696  0.13729194  1
  C  C1536  1  0.82501100  0.73020696  0.33729194  1
  C  C1537  1  0.82501100  0.73020696  0.53729194  1
  C  C1538  1  0.82501100  0.73020696  0.73729194  1
  C  C1539  1  0.82501100  0.73020696  0.93729194  1
  C  C1540  1  0.82501100  0.60520696  0.16229194  1
  C  C1541  1  0.82501100  0.60520696  0.36229194  1
  C  C1542  1  0.82501100  0.60520696  0.56229194  1
  C  C1543  1  0.82501100  0.60520696  0.76229194  1
  C  C1544  1  0.82501100  0.60520696  0.96229194  1
  C  C1545  1  0.82501100  0.48020696  0.18729194  1
  C  C1546  1  0.82501100  0.48020696  0.38729194  1
  C  C1547  1  0.82501100  0.48020696  0.58729194  1
  C  C1548  1  0.82501100  0.48020696  0.78729194  1
  C  C1549  1  0.82501100  0.48020696  0.98729194  1
  C  C1550  1  0.82501100  0.98020696  0.11229194  1
  C  C1551  1  0.82501100  0.98020696  0.31229194  1
  C  C1552  1  0.82501100  0.98020696  0.51229194  1
  C  C1553  1  0.82501100  0.98020696  0.71229194  1
  C  C1554  1  0.82501100  0.98020696  0.91229194  1
  C  C1555  1  0.82501100  0.85520696  0.13729194  1
  C  C1556  1  0.82501100  0.85520696  0.33729194  1
  C  C1557  1  0.82501100  0.85520696  0.53729194  1
  C  C1558  1  0.82501100  0.85520696  0.73729194  1
  C  C1559  1  0.82501100  0.85520696  0.93729194  1
  C  C1560  1  0.82501100  0.73020696  0.16229194  1
  C  C1561  1  0.82501100  0.73020696  0.36229194  1
  C  C1562  1  0.82501100  0.73020696  0.56229194  1
  C  C1563  1  0.82501100  0.73020696  0.76229194  1
  C  C1564  1  0.82501100  0.73020696  0.96229194  1
  C  C1565  1  0.82501100  0.60520696  0.18729194  1
  C  C1566  1  0.82501100  0.60520696  0.38729194  1
  C  C1567  1  0.82501100  0.60520696  0.58729194  1
  C  C1568  1  0.82501100  0.60520696  0.78729194  1
  C  C1569  1  0.82501100  0.60520696  0.98729194  1
  C  C1570  1  0.82501100  0.98020696  0.13729194  1
  C  C1571  1  0.82501100  0.98020696  0.33729194  1
  C  C1572  1  0.82501100  0.98020696  0.53729194  1
  C  C1573  1  0.82501100  0.98020696  0.73729194  1
  C  C1574  1  0.82501100  0.98020696  0.93729194  1
  C  C1575  1  0.82501100  0.85520696  0.16229194  1
  C  C1576  1  0.82501100  0.85520696  0.36229194  1
  C  C1577  1  0.82501100  0.85520696  0.56229194  1
  C  C1578  1  0.82501100  0.85520696  0.76229194  1
  C  C1579  1  0.82501100  0.85520696  0.96229194  1
  C  C1580  1  0.82501100  0.73020696  0.18729194  1
  C  C1581  1  0.82501100  0.73020696  0.38729194  1
  C  C1582  1  0.82501100  0.73020696  0.58729194  1
  C  C1583  1  0.82501100  0.73020696  0.78729194  1
  C  C1584  1  0.82501100  0.73020696  0.98729194  1
  C  C1585  1  0.82501100  0.98020696  0.16229194  1
  C  C1586  1  0.82501100  0.98020696  0.36229194  1
  C  C1587  1  0.82501100  0.98020696  0.56229194  1
  C  C1588  1  0.82501100  0.98020696  0.76229194  1
  C  C1589  1  0.82501100  0.98020696  0.96229194  1
  C  C1590  1  0.82501100  0.85520696  0.18729194  1
  C  C1591  1  0.82501100  0.85520696  0.38729194  1
  C  C1592  1  0.82501100  0.85520696  0.58729194  1
  C  C1593  1  0.82501100  0.85520696  0.78729194  1
  C  C1594  1  0.82501100  0.85520696  0.98729194  1
  C  C1595  1  0.82501100  0.98020696  0.18729194  1
  C  C1596  1  0.82501100  0.98020696  0.38729194  1
  C  C1597  1  0.82501100  0.98020696  0.58729194  1
  C  C1598  1  0.82501100  0.98020696  0.78729194  1
  C  C1599  1  0.82501100  0.98020696  0.98729194  1
  C  C1600  1  0.42482200  0.03023058  0.00228722  1
  C  C1601  1  0.42482200  0.03023058  0.20228722  1
  C  C1602  1  0.42482200  0.03023058  0.40228722  1
  C  C1603  1  0.42482200  0.03023058  0.60228722  1
  C  C1604  1  0.42482200  0.03023058  0.80228722  1
  C  C1605  1  0.42482200  0.15523058  0.00228722  1
  C  C1606  1  0.42482200  0.15523058  0.20228722  1
  C  C1607  1  0.42482200  0.15523058  0.40228722  1
  C  C1608  1  0.42482200  0.15523058  0.60228722  1
  C  C1609  1  0.42482200  0.15523058  0.80228722  1
  C  C1610  1  0.42482200  0.03023058  0.02728722  1
  C  C1611  1  0.42482200  0.03023058  0.22728722  1
  C  C1612  1  0.42482200  0.03023058  0.42728722  1
  C  C1613  1  0.42482200  0.03023058  0.62728722  1
  C  C1614  1  0.42482200  0.03023058  0.82728722  1
  C  C1615  1  0.42482200  0.28023058  0.00228722  1
  C  C1616  1  0.42482200  0.28023058  0.20228722  1
  C  C1617  1  0.42482200  0.28023058  0.40228722  1
  C  C1618  1  0.42482200  0.28023058  0.60228722  1
  C  C1619  1  0.42482200  0.28023058  0.80228722  1
  C  C1620  1  0.42482200  0.15523058  0.02728722  1
  C  C1621  1  0.42482200  0.15523058  0.22728722  1
  C  C1622  1  0.42482200  0.15523058  0.42728722  1
  C  C1623  1  0.42482200  0.15523058  0.62728722  1
  C  C1624  1  0.42482200  0.15523058  0.82728722  1
  C  C1625  1  0.42482200  0.03023058  0.05228722  1
  C  C1626  1  0.42482200  0.03023058  0.25228722  1
  C  C1627  1  0.42482200  0.03023058  0.45228722  1
  C  C1628  1  0.42482200  0.03023058  0.65228722  1
  C  C1629  1  0.42482200  0.03023058  0.85228722  1
  C  C1630  1  0.42482200  0.40523058  0.00228722  1
  C  C1631  1  0.42482200  0.40523058  0.20228722  1
  C  C1632  1  0.42482200  0.40523058  0.40228722  1
  C  C1633  1  0.42482200  0.40523058  0.60228722  1
  C  C1634  1  0.42482200  0.40523058  0.80228722  1
  C  C1635  1  0.42482200  0.28023058  0.02728722  1
  C  C1636  1  0.42482200  0.28023058  0.22728722  1
  C  C1637  1  0.42482200  0.28023058  0.42728722  1
  C  C1638  1  0.42482200  0.28023058  0.62728722  1
  C  C1639  1  0.42482200  0.28023058  0.82728722  1
  C  C1640  1  0.42482200  0.15523058  0.05228722  1
  C  C1641  1  0.42482200  0.15523058  0.25228722  1
  C  C1642  1  0.42482200  0.15523058  0.45228722  1
  C  C1643  1  0.42482200  0.15523058  0.65228722  1
  C  C1644  1  0.42482200  0.15523058  0.85228722  1
  C  C1645  1  0.42482200  0.03023058  0.07728722  1
  C  C1646  1  0.42482200  0.03023058  0.27728722  1
  C  C1647  1  0.42482200  0.03023058  0.47728722  1
  C  C1648  1  0.42482200  0.03023058  0.67728722  1
  C  C1649  1  0.42482200  0.03023058  0.87728722  1
  C  C1650  1  0.42482200  0.53023058  0.00228722  1
  C  C1651  1  0.42482200  0.53023058  0.20228722  1
  C  C1652  1  0.42482200  0.53023058  0.40228722  1
  C  C1653  1  0.42482200  0.53023058  0.60228722  1
  C  C1654  1  0.42482200  0.53023058  0.80228722  1
  C  C1655  1  0.42482200  0.40523058  0.02728722  1
  C  C1656  1  0.42482200  0.40523058  0.22728722  1
  C  C1657  1  0.42482200  0.40523058  0.42728722  1
  C  C1658  1  0.42482200  0.40523058  0.62728722  1
  C  C1659  1  0.42482200  0.40523058  0.82728722  1
  C  C1660  1  0.42482200  0.28023058  0.05228722  1
  C  C1661  1  0.42482200  0.28023058  0.25228722  1
  C  C1662  1  0.42482200  0.28023058  0.45228722  1
  C  C1663  1  0.42482200  0.28023058  0.65228722  1
  C  C1664  1  0.42482200  0.28023058  0.85228722  1
  C  C1665  1  0.42482200  0.15523058  0.07728722  1
  C  C1666  1  0.42482200  0.15523058  0.27728722  1
  C  C1667  1  0.42482200  0.15523058  0.47728722  1
  C  C1668  1  0.42482200  0.15523058  0.67728722  1
  C  C1669  1  0.42482200  0.15523058  0.87728722  1
  C  C1670  1  0.42482200  0.03023058  0.10228722  1
  C  C1671  1  0.42482200  0.03023058  0.30228722  1
  C  C1672  1  0.42482200  0.03023058  0.50228722  1
  C  C1673  1  0.42482200  0.03023058  0.70228722  1
  C  C1674  1  0.42482200  0.03023058  0.90228722  1
  C  C1675  1  0.42482200  0.65523058  0.00228722  1
  C  C1676  1  0.42482200  0.65523058  0.20228722  1
  C  C1677  1  0.42482200  0.65523058  0.40228722  1
  C  C1678  1  0.42482200  0.65523058  0.60228722  1
  C  C1679  1  0.42482200  0.65523058  0.80228722  1
  C  C1680  1  0.42482200  0.53023058  0.02728722  1
  C  C1681  1  0.42482200  0.53023058  0.22728722  1
  C  C1682  1  0.42482200  0.53023058  0.42728722  1
  C  C1683  1  0.42482200  0.53023058  0.62728722  1
  C  C1684  1  0.42482200  0.53023058  0.82728722  1
  C  C1685  1  0.42482200  0.40523058  0.05228722  1
  C  C1686  1  0.42482200  0.40523058  0.25228722  1
  C  C1687  1  0.42482200  0.40523058  0.45228722  1
  C  C1688  1  0.42482200  0.40523058  0.65228722  1
  C  C1689  1  0.42482200  0.40523058  0.85228722  1
  C  C1690  1  0.42482200  0.28023058  0.07728722  1
  C  C1691  1  0.42482200  0.28023058  0.27728722  1
  C  C1692  1  0.42482200  0.28023058  0.47728722  1
  C  C1693  1  0.42482200  0.28023058  0.67728722  1
  C  C1694  1  0.42482200  0.28023058  0.87728722  1
  C  C1695  1  0.42482200  0.15523058  0.10228722  1
  C  C1696  1  0.42482200  0.15523058  0.30228722  1
  C  C1697  1  0.42482200  0.15523058  0.50228722  1
  C  C1698  1  0.42482200  0.15523058  0.70228722  1
  C  C1699  1  0.42482200  0.15523058  0.90228722  1
  C  C1700  1  0.42482200  0.03023058  0.12728722  1
  C  C1701  1  0.42482200  0.03023058  0.32728722  1
  C  C1702  1  0.42482200  0.03023058  0.52728722  1
  C  C1703  1  0.42482200  0.03023058  0.72728722  1
  C  C1704  1  0.42482200  0.03023058  0.92728722  1
  C  C1705  1  0.42482200  0.78023058  0.00228722  1
  C  C1706  1  0.42482200  0.78023058  0.20228722  1
  C  C1707  1  0.42482200  0.78023058  0.40228722  1
  C  C1708  1  0.42482200  0.78023058  0.60228722  1
  C  C1709  1  0.42482200  0.78023058  0.80228722  1
  C  C1710  1  0.42482200  0.65523058  0.02728722  1
  C  C1711  1  0.42482200  0.65523058  0.22728722  1
  C  C1712  1  0.42482200  0.65523058  0.42728722  1
  C  C1713  1  0.42482200  0.65523058  0.62728722  1
  C  C1714  1  0.42482200  0.65523058  0.82728722  1
  C  C1715  1  0.42482200  0.53023058  0.05228722  1
  C  C1716  1  0.42482200  0.53023058  0.25228722  1
  C  C1717  1  0.42482200  0.53023058  0.45228722  1
  C  C1718  1  0.42482200  0.53023058  0.65228722  1
  C  C1719  1  0.42482200  0.53023058  0.85228722  1
  C  C1720  1  0.42482200  0.40523058  0.07728722  1
  C  C1721  1  0.42482200  0.40523058  0.27728722  1
  C  C1722  1  0.42482200  0.40523058  0.47728722  1
  C  C1723  1  0.42482200  0.40523058  0.67728722  1
  C  C1724  1  0.42482200  0.40523058  0.87728722  1
  C  C1725  1  0.42482200  0.28023058  0.10228722  1
  C  C1726  1  0.42482200  0.28023058  0.30228722  1
  C  C1727  1  0.42482200  0.28023058  0.50228722  1
  C  C1728  1  0.42482200  0.28023058  0.70228722  1
  C  C1729  1  0.42482200  0.28023058  0.90228722  1
  C  C1730  1  0.42482200  0.15523058  0.12728722  1
  C  C1731  1  0.42482200  0.15523058  0.32728722  1
  C  C1732  1  0.42482200  0.15523058  0.52728722  1
  C  C1733  1  0.42482200  0.15523058  0.72728722  1
  C  C1734  1  0.42482200  0.15523058  0.92728722  1
  C  C1735  1  0.42482200  0.03023058  0.15228722  1
  C  C1736  1  0.42482200  0.03023058  0.35228722  1
  C  C1737  1  0.42482200  0.03023058  0.55228722  1
  C  C1738  1  0.42482200  0.03023058  0.75228722  1
  C  C1739  1  0.42482200  0.03023058  0.95228722  1
  C  C1740  1  0.42482200  0.90523058  0.00228722  1
  C  C1741  1  0.42482200  0.90523058  0.20228722  1
  C  C1742  1  0.42482200  0.90523058  0.40228722  1
  C  C1743  1  0.42482200  0.90523058  0.60228722  1
  C  C1744  1  0.42482200  0.90523058  0.80228722  1
  C  C1745  1  0.42482200  0.78023058  0.02728722  1
  C  C1746  1  0.42482200  0.78023058  0.22728722  1
  C  C1747  1  0.42482200  0.78023058  0.42728722  1
  C  C1748  1  0.42482200  0.78023058  0.62728722  1
  C  C1749  1  0.42482200  0.78023058  0.82728722  1
  C  C1750  1  0.42482200  0.65523058  0.05228722  1
  C  C1751  1  0.42482200  0.65523058  0.25228722  1
  C  C1752  1  0.42482200  0.65523058  0.45228722  1
  C  C1753  1  0.42482200  0.65523058  0.65228722  1
  C  C1754  1  0.42482200  0.65523058  0.85228722  1
  C  C1755  1  0.42482200  0.53023058  0.07728722  1
  C  C1756  1  0.42482200  0.53023058  0.27728722  1
  C  C1757  1  0.42482200  0.53023058  0.47728722  1
  C  C1758  1  0.42482200  0.53023058  0.67728722  1
  C  C1759  1  0.42482200  0.53023058  0.87728722  1
  C  C1760  1  0.42482200  0.40523058  0.10228722  1
  C  C1761  1  0.42482200  0.40523058  0.30228722  1
  C  C1762  1  0.42482200  0.40523058  0.50228722  1
  C  C1763  1  0.42482200  0.40523058  0.70228722  1
  C  C1764  1  0.42482200  0.40523058  0.90228722  1
  C  C1765  1  0.42482200  0.28023058  0.12728722  1
  C  C1766  1  0.42482200  0.28023058  0.32728722  1
  C  C1767  1  0.42482200  0.28023058  0.52728722  1
  C  C1768  1  0.42482200  0.28023058  0.72728722  1
  C  C1769  1  0.42482200  0.28023058  0.92728722  1
  C  C1770  1  0.42482200  0.15523058  0.15228722  1
  C  C1771  1  0.42482200  0.15523058  0.35228722  1
  C  C1772  1  0.42482200  0.15523058  0.55228722  1
  C  C1773  1  0.42482200  0.15523058  0.75228722  1
  C  C1774  1  0.42482200  0.15523058  0.95228722  1
  C  C1775  1  0.42482200  0.03023058  0.17728722  1
  C  C1776  1  0.42482200  0.03023058  0.37728722  1
  C  C1777  1  0.42482200  0.03023058  0.57728722  1
  C  C1778  1  0.42482200  0.03023058  0.77728722  1
  C  C1779  1  0.42482200  0.03023058  0.97728722  1
  C  C1780  1  0.42482200  0.90523058  0.02728722  1
  C  C1781  1  0.42482200  0.90523058  0.22728722  1
  C  C1782  1  0.42482200  0.90523058  0.42728722  1
  C  C1783  1  0.42482200  0.90523058  0.62728722  1
  C  C1784  1  0.42482200  0.90523058  0.82728722  1
  C  C1785  1  0.42482200  0.78023058  0.05228722  1
  C  C1786  1  0.42482200  0.78023058  0.25228722  1
  C  C1787  1  0.42482200  0.78023058  0.45228722  1
  C  C1788  1  0.42482200  0.78023058  0.65228722  1
  C  C1789  1  0.42482200  0.78023058  0.85228722  1
  C  C1790  1  0.42482200  0.65523058  0.07728722  1
  C  C1791  1  0.42482200  0.65523058  0.27728722  1
  C  C1792  1  0.42482200  0.65523058  0.47728722  1
  C  C1793  1  0.42482200  0.65523058  0.67728722  1
  C  C1794  1  0.42482200  0.65523058  0.87728722  1
  C  C1795  1  0.42482200  0.53023058  0.10228722  1
  C  C1796  1  0.42482200  0.53023058  0.30228722  1
  C  C1797  1  0.42482200  0.53023058  0.50228722  1
  C  C1798  1  0.42482200  0.53023058  0.70228722  1
  C  C1799  1  0.42482200  0.53023058  0.90228722  1
  C  C1800  1  0.42482200  0.40523058  0.12728722  1
  C  C1801  1  0.42482200  0.40523058  0.32728722  1
  C  C1802  1  0.42482200  0.40523058  0.52728722  1
  C  C1803  1  0.42482200  0.40523058  0.72728722  1
  C  C1804  1  0.42482200  0.40523058  0.92728722  1
  C  C1805  1  0.42482200  0.28023058  0.15228722  1
  C  C1806  1  0.42482200  0.28023058  0.35228722  1
  C  C1807  1  0.42482200  0.28023058  0.55228722  1
  C  C1808  1  0.42482200  0.28023058  0.75228722  1
  C  C1809  1  0.42482200  0.28023058  0.95228722  1
  C  C1810  1  0.42482200  0.15523058  0.17728722  1
  C  C1811  1  0.42482200  0.15523058  0.37728722  1
  C  C1812  1  0.42482200  0.15523058  0.57728722  1
  C  C1813  1  0.42482200  0.15523058  0.77728722  1
  C  C1814  1  0.42482200  0.15523058  0.97728722  1
  C  C1815  1  0.42482200  0.90523058  0.05228722  1
  C  C1816  1  0.42482200  0.90523058  0.25228722  1
  C  C1817  1  0.42482200  0.90523058  0.45228722  1
  C  C1818  1  0.42482200  0.90523058  0.65228722  1
  C  C1819  1  0.42482200  0.90523058  0.85228722  1
  C  C1820  1  0.42482200  0.78023058  0.07728722  1
  C  C1821  1  0.42482200  0.78023058  0.27728722  1
  C  C1822  1  0.42482200  0.78023058  0.47728722  1
  C  C1823  1  0.42482200  0.78023058  0.67728722  1
  C  C1824  1  0.42482200  0.78023058  0.87728722  1
  C  C1825  1  0.42482200  0.65523058  0.10228722  1
  C  C1826  1  0.42482200  0.65523058  0.30228722  1
  C  C1827  1  0.42482200  0.65523058  0.50228722  1
  C  C1828  1  0.42482200  0.65523058  0.70228722  1
  C  C1829  1  0.42482200  0.65523058  0.90228722  1
  C  C1830  1  0.42482200  0.53023058  0.12728722  1
  C  C1831  1  0.42482200  0.53023058  0.32728722  1
  C  C1832  1  0.42482200  0.53023058  0.52728722  1
  C  C1833  1  0.42482200  0.53023058  0.72728722  1
  C  C1834  1  0.42482200  0.53023058  0.92728722  1
  C  C1835  1  0.42482200  0.40523058  0.15228722  1
  C  C1836  1  0.42482200  0.40523058  0.35228722  1
  C  C1837  1  0.42482200  0.40523058  0.55228722  1
  C  C1838  1  0.42482200  0.40523058  0.75228722  1
  C  C1839  1  0.42482200  0.40523058  0.95228722  1
  C  C1840  1  0.42482200  0.28023058  0.17728722  1
  C  C1841  1  0.42482200  0.28023058  0.37728722  1
  C  C1842  1  0.42482200  0.28023058  0.57728722  1
  C  C1843  1  0.42482200  0.28023058  0.77728722  1
  C  C1844  1  0.42482200  0.28023058  0.97728722  1
  C  C1845  1  0.42482200  0.90523058  0.07728722  1
  C  C1846  1  0.42482200  0.90523058  0.27728722  1
  C  C1847  1  0.42482200  0.90523058  0.47728722  1
  C  C1848  1  0.42482200  0.90523058  0.67728722  1
  C  C1849  1  0.42482200  0.90523058  0.87728722  1
  C  C1850  1  0.42482200  0.78023058  0.10228722  1
  C  C1851  1  0.42482200  0.78023058  0.30228722  1
  C  C1852  1  0.42482200  0.78023058  0.50228722  1
  C  C1853  1  0.42482200  0.78023058  0.70228722  1
  C  C1854  1  0.42482200  0.78023058  0.90228722  1
  C  C1855  1  0.42482200  0.65523058  0.12728722  1
  C  C1856  1  0.42482200  0.65523058  0.32728722  1
  C  C1857  1  0.42482200  0.65523058  0.52728722  1
  C  C1858  1  0.42482200  0.65523058  0.72728722  1
  C  C1859  1  0.42482200  0.65523058  0.92728722  1
  C  C1860  1  0.42482200  0.53023058  0.15228722  1
  C  C1861  1  0.42482200  0.53023058  0.35228722  1
  C  C1862  1  0.42482200  0.53023058  0.55228722  1
  C  C1863  1  0.42482200  0.53023058  0.75228722  1
  C  C1864  1  0.42482200  0.53023058  0.95228722  1
  C  C1865  1  0.42482200  0.40523058  0.17728722  1
  C  C1866  1  0.42482200  0.40523058  0.37728722  1
  C  C1867  1  0.42482200  0.40523058  0.57728722  1
  C  C1868  1  0.42482200  0.40523058  0.77728722  1
  C  C1869  1  0.42482200  0.40523058  0.97728722  1
  C  C1870  1  0.42482200  0.90523058  0.10228722  1
  C  C1871  1  0.42482200  0.90523058  0.30228722  1
  C  C1872  1  0.42482200  0.90523058  0.50228722  1
  C  C1873  1  0.42482200  0.90523058  0.70228722  1
  C  C1874  1  0.42482200  0.90523058  0.90228722  1
  C  C1875  1  0.42482200  0.78023058  0.12728722  1
  C  C1876  1  0.42482200  0.78023058  0.32728722  1
  C  C1877  1  0.42482200  0.78023058  0.52728722  1
  C  C1878  1  0.42482200  0.78023058  0.72728722  1
  C  C1879  1  0.42482200  0.78023058  0.92728722  1
  C  C1880  1  0.42482200  0.65523058  0.15228722  1
  C  C1881  1  0.42482200  0.65523058  0.35228722  1
  C  C1882  1  0.42482200  0.65523058  0.55228722  1
  C  C1883  1  0.42482200  0.65523058  0.75228722  1
  C  C1884  1  0.42482200  0.65523058  0.95228722  1
  C  C1885  1  0.42482200  0.53023058  0.17728722  1
  C  C1886  1  0.42482200  0.53023058  0.37728722  1
  C  C1887  1  0.42482200  0.53023058  0.57728722  1
  C  C1888  1  0.42482200  0.53023058  0.77728722  1
  C  C1889  1  0.42482200  0.53023058  0.97728722  1
  C  C1890  1  0.42482200  0.90523058  0.12728722  1
  C  C1891  1  0.42482200  0.90523058  0.32728722  1
  C  C1892  1  0.42482200  0.90523058  0.52728722  1
  C  C1893  1  0.42482200  0.90523058  0.72728722  1
  C  C1894  1  0.42482200  0.90523058  0.92728722  1
  C  C1895  1  0.42482200  0.78023058  0.15228722  1
  C  C1896  1  0.42482200  0.78023058  0.35228722  1
  C  C1897  1  0.42482200  0.78023058  0.55228722  1
  C  C1898  1  0.42482200  0.78023058  0.75228722  1
  C  C1899  1  0.42482200  0.78023058  0.95228722  1
  C  C1900  1  0.42482200  0.65523058  0.17728722  1
  C  C1901  1  0.42482200  0.65523058  0.37728722  1
  C  C1902  1  0.42482200  0.65523058  0.57728722  1
  C  C1903  1  0.42482200  0.65523058  0.77728722  1
  C  C1904  1  0.42482200  0.65523058  0.97728722  1
  C  C1905  1  0.42482200  0.90523058  0.15228722  1
  C  C1906  1  0.42482200  0.90523058  0.35228722  1
  C  C1907  1  0.42482200  0.90523058  0.55228722  1
  C  C1908  1  0.42482200  0.90523058  0.75228722  1
  C  C1909  1  0.42482200  0.90523058  0.95228722  1
  C  C1910  1  0.42482200  0.78023058  0.17728722  1
  C  C1911  1  0.42482200  0.78023058  0.37728722  1
  C  C1912  1  0.42482200  0.78023058  0.57728722  1
  C  C1913  1  0.42482200  0.78023058  0.77728722  1
  C  C1914  1  0.42482200  0.78023058  0.97728722  1
  C  C1915  1  0.42482200  0.90523058  0.17728722  1
  C  C1916  1  0.42482200  0.90523058  0.37728722  1
  C  C1917  1  0.42482200  0.90523058  0.57728722  1
  C  C1918  1  0.42482200  0.90523058  0.77728722  1
  C  C1919  1  0.42482200  0.90523058  0.97728722  1
  C  C1920  1  0.52511100  0.05936113  0.01312777  1
  C  C1921  1  0.52511100  0.05936113  0.21312777  1
  C  C1922  1  0.52511100  0.05936113  0.41312777  1
  C  C1923  1  0.52511100  0.05936113  0.61312777  1
  C  C1924  1  0.52511100  0.05936113  0.81312778  1
  C  C1925  1  0.52511100  0.18436113  0.01312777  1
  C  C1926  1  0.52511100  0.18436113  0.21312777  1
  C  C1927  1  0.52511100  0.18436113  0.41312777  1
  C  C1928  1  0.52511100  0.18436113  0.61312777  1
  C  C1929  1  0.52511100  0.18436113  0.81312778  1
  C  C1930  1  0.52511100  0.05936113  0.03812778  1
  C  C1931  1  0.52511100  0.05936113  0.23812778  1
  C  C1932  1  0.52511100  0.05936113  0.43812777  1
  C  C1933  1  0.52511100  0.05936113  0.63812777  1
  C  C1934  1  0.52511100  0.05936113  0.83812778  1
  C  C1935  1  0.52511100  0.30936113  0.01312777  1
  C  C1936  1  0.52511100  0.30936113  0.21312777  1
  C  C1937  1  0.52511100  0.30936113  0.41312777  1
  C  C1938  1  0.52511100  0.30936113  0.61312777  1
  C  C1939  1  0.52511100  0.30936113  0.81312778  1
  C  C1940  1  0.52511100  0.18436113  0.03812778  1
  C  C1941  1  0.52511100  0.18436113  0.23812778  1
  C  C1942  1  0.52511100  0.18436113  0.43812777  1
  C  C1943  1  0.52511100  0.18436113  0.63812777  1
  C  C1944  1  0.52511100  0.18436113  0.83812778  1
  C  C1945  1  0.52511100  0.05936113  0.06312777  1
  C  C1946  1  0.52511100  0.05936113  0.26312778  1
  C  C1947  1  0.52511100  0.05936113  0.46312778  1
  C  C1948  1  0.52511100  0.05936113  0.66312777  1
  C  C1949  1  0.52511100  0.05936113  0.86312778  1
  C  C1950  1  0.52511100  0.43436113  0.01312777  1
  C  C1951  1  0.52511100  0.43436113  0.21312777  1
  C  C1952  1  0.52511100  0.43436113  0.41312777  1
  C  C1953  1  0.52511100  0.43436113  0.61312777  1
  C  C1954  1  0.52511100  0.43436113  0.81312778  1
  C  C1955  1  0.52511100  0.30936113  0.03812778  1
  C  C1956  1  0.52511100  0.30936113  0.23812778  1
  C  C1957  1  0.52511100  0.30936113  0.43812777  1
  C  C1958  1  0.52511100  0.30936113  0.63812777  1
  C  C1959  1  0.52511100  0.30936113  0.83812778  1
  C  C1960  1  0.52511100  0.18436113  0.06312777  1
  C  C1961  1  0.52511100  0.18436113  0.26312778  1
  C  C1962  1  0.52511100  0.18436113  0.46312778  1
  C  C1963  1  0.52511100  0.18436113  0.66312777  1
  C  C1964  1  0.52511100  0.18436113  0.86312778  1
  C  C1965  1  0.52511100  0.05936113  0.08812778  1
  C  C1966  1  0.52511100  0.05936113  0.28812777  1
  C  C1967  1  0.52511100  0.05936113  0.48812777  1
  C  C1968  1  0.52511100  0.05936113  0.68812777  1
  C  C1969  1  0.52511100  0.05936113  0.88812778  1
  C  C1970  1  0.52511100  0.55936113  0.01312777  1
  C  C1971  1  0.52511100  0.55936113  0.21312777  1
  C  C1972  1  0.52511100  0.55936113  0.41312777  1
  C  C1973  1  0.52511100  0.55936113  0.61312777  1
  C  C1974  1  0.52511100  0.55936113  0.81312778  1
  C  C1975  1  0.52511100  0.43436113  0.03812778  1
  C  C1976  1  0.52511100  0.43436113  0.23812778  1
  C  C1977  1  0.52511100  0.43436113  0.43812777  1
  C  C1978  1  0.52511100  0.43436113  0.63812777  1
  C  C1979  1  0.52511100  0.43436113  0.83812778  1
  C  C1980  1  0.52511100  0.30936113  0.06312777  1
  C  C1981  1  0.52511100  0.30936113  0.26312778  1
  C  C1982  1  0.52511100  0.30936113  0.46312778  1
  C  C1983  1  0.52511100  0.30936113  0.66312777  1
  C  C1984  1  0.52511100  0.30936113  0.86312778  1
  C  C1985  1  0.52511100  0.18436113  0.08812778  1
  C  C1986  1  0.52511100  0.18436113  0.28812777  1
  C  C1987  1  0.52511100  0.18436113  0.48812777  1
  C  C1988  1  0.52511100  0.18436113  0.68812777  1
  C  C1989  1  0.52511100  0.18436113  0.88812778  1
  C  C1990  1  0.52511100  0.05936113  0.11312777  1
  C  C1991  1  0.52511100  0.05936113  0.31312777  1
  C  C1992  1  0.52511100  0.05936113  0.51312777  1
  C  C1993  1  0.52511100  0.05936113  0.71312778  1
  C  C1994  1  0.52511100  0.05936113  0.91312778  1
  C  C1995  1  0.52511100  0.68436113  0.01312777  1
  C  C1996  1  0.52511100  0.68436113  0.21312777  1
  C  C1997  1  0.52511100  0.68436113  0.41312777  1
  C  C1998  1  0.52511100  0.68436113  0.61312777  1
  C  C1999  1  0.52511100  0.68436113  0.81312778  1
  C  C2000  1  0.52511100  0.55936113  0.03812778  1
  C  C2001  1  0.52511100  0.55936113  0.23812778  1
  C  C2002  1  0.52511100  0.55936113  0.43812777  1
  C  C2003  1  0.52511100  0.55936113  0.63812777  1
  C  C2004  1  0.52511100  0.55936113  0.83812778  1
  C  C2005  1  0.52511100  0.43436113  0.06312777  1
  C  C2006  1  0.52511100  0.43436113  0.26312778  1
  C  C2007  1  0.52511100  0.43436113  0.46312778  1
  C  C2008  1  0.52511100  0.43436113  0.66312777  1
  C  C2009  1  0.52511100  0.43436113  0.86312778  1
  C  C2010  1  0.52511100  0.30936113  0.08812778  1
  C  C2011  1  0.52511100  0.30936113  0.28812777  1
  C  C2012  1  0.52511100  0.30936113  0.48812777  1
  C  C2013  1  0.52511100  0.30936113  0.68812777  1
  C  C2014  1  0.52511100  0.30936113  0.88812778  1
  C  C2015  1  0.52511100  0.18436113  0.11312777  1
  C  C2016  1  0.52511100  0.18436113  0.31312777  1
  C  C2017  1  0.52511100  0.18436113  0.51312777  1
  C  C2018  1  0.52511100  0.18436113  0.71312778  1
  C  C2019  1  0.52511100  0.18436113  0.91312778  1
  C  C2020  1  0.52511100  0.05936113  0.13812778  1
  C  C2021  1  0.52511100  0.05936113  0.33812778  1
  C  C2022  1  0.52511100  0.05936113  0.53812777  1
  C  C2023  1  0.52511100  0.05936113  0.73812777  1
  C  C2024  1  0.52511100  0.05936113  0.93812778  1
  C  C2025  1  0.52511100  0.80936113  0.01312777  1
  C  C2026  1  0.52511100  0.80936113  0.21312777  1
  C  C2027  1  0.52511100  0.80936113  0.41312777  1
  C  C2028  1  0.52511100  0.80936113  0.61312777  1
  C  C2029  1  0.52511100  0.80936113  0.81312777  1
  C  C2030  1  0.52511100  0.68436113  0.03812778  1
  C  C2031  1  0.52511100  0.68436113  0.23812778  1
  C  C2032  1  0.52511100  0.68436113  0.43812777  1
  C  C2033  1  0.52511100  0.68436113  0.63812777  1
  C  C2034  1  0.52511100  0.68436113  0.83812778  1
  C  C2035  1  0.52511100  0.55936113  0.06312777  1
  C  C2036  1  0.52511100  0.55936113  0.26312778  1
  C  C2037  1  0.52511100  0.55936113  0.46312778  1
  C  C2038  1  0.52511100  0.55936113  0.66312777  1
  C  C2039  1  0.52511100  0.55936113  0.86312778  1
  C  C2040  1  0.52511100  0.43436113  0.08812778  1
  C  C2041  1  0.52511100  0.43436113  0.28812777  1
  C  C2042  1  0.52511100  0.43436113  0.48812777  1
  C  C2043  1  0.52511100  0.43436113  0.68812777  1
  C  C2044  1  0.52511100  0.43436113  0.88812778  1
  C  C2045  1  0.52511100  0.30936113  0.11312777  1
  C  C2046  1  0.52511100  0.30936113  0.31312777  1
  C  C2047  1  0.52511100  0.30936113  0.51312777  1
  C  C2048  1  0.52511100  0.30936113  0.71312778  1
  C  C2049  1  0.52511100  0.30936113  0.91312778  1
  C  C2050  1  0.52511100  0.18436113  0.13812778  1
  C  C2051  1  0.52511100  0.18436113  0.33812778  1
  C  C2052  1  0.52511100  0.18436113  0.53812777  1
  C  C2053  1  0.52511100  0.18436113  0.73812777  1
  C  C2054  1  0.52511100  0.18436113  0.93812778  1
  C  C2055  1  0.52511100  0.05936113  0.16312778  1
  C  C2056  1  0.52511100  0.05936113  0.36312777  1
  C  C2057  1  0.52511100  0.05936113  0.56312778  1
  C  C2058  1  0.52511100  0.05936113  0.76312778  1
  C  C2059  1  0.52511100  0.05936113  0.96312778  1
  C  C2060  1  0.52511100  0.93436113  0.01312777  1
  C  C2061  1  0.52511100  0.93436113  0.21312777  1
  C  C2062  1  0.52511100  0.93436113  0.41312777  1
  C  C2063  1  0.52511100  0.93436113  0.61312777  1
  C  C2064  1  0.52511100  0.93436113  0.81312777  1
  C  C2065  1  0.52511100  0.80936113  0.03812778  1
  C  C2066  1  0.52511100  0.80936113  0.23812778  1
  C  C2067  1  0.52511100  0.80936113  0.43812777  1
  C  C2068  1  0.52511100  0.80936113  0.63812777  1
  C  C2069  1  0.52511100  0.80936113  0.83812777  1
  C  C2070  1  0.52511100  0.68436113  0.06312777  1
  C  C2071  1  0.52511100  0.68436113  0.26312778  1
  C  C2072  1  0.52511100  0.68436113  0.46312778  1
  C  C2073  1  0.52511100  0.68436113  0.66312777  1
  C  C2074  1  0.52511100  0.68436113  0.86312778  1
  C  C2075  1  0.52511100  0.55936113  0.08812778  1
  C  C2076  1  0.52511100  0.55936113  0.28812777  1
  C  C2077  1  0.52511100  0.55936113  0.48812777  1
  C  C2078  1  0.52511100  0.55936113  0.68812777  1
  C  C2079  1  0.52511100  0.55936113  0.88812778  1
  C  C2080  1  0.52511100  0.43436113  0.11312777  1
  C  C2081  1  0.52511100  0.43436113  0.31312777  1
  C  C2082  1  0.52511100  0.43436113  0.51312777  1
  C  C2083  1  0.52511100  0.43436113  0.71312778  1
  C  C2084  1  0.52511100  0.43436113  0.91312778  1
  C  C2085  1  0.52511100  0.30936113  0.13812778  1
  C  C2086  1  0.52511100  0.30936113  0.33812778  1
  C  C2087  1  0.52511100  0.30936113  0.53812777  1
  C  C2088  1  0.52511100  0.30936113  0.73812777  1
  C  C2089  1  0.52511100  0.30936113  0.93812778  1
  C  C2090  1  0.52511100  0.18436113  0.16312778  1
  C  C2091  1  0.52511100  0.18436113  0.36312777  1
  C  C2092  1  0.52511100  0.18436113  0.56312777  1
  C  C2093  1  0.52511100  0.18436113  0.76312777  1
  C  C2094  1  0.52511100  0.18436113  0.96312778  1
  C  C2095  1  0.52511100  0.05936113  0.18812777  1
  C  C2096  1  0.52511100  0.05936113  0.38812778  1
  C  C2097  1  0.52511100  0.05936113  0.58812778  1
  C  C2098  1  0.52511100  0.05936113  0.78812778  1
  C  C2099  1  0.52511100  0.05936113  0.98812778  1
  C  C2100  1  0.52511100  0.93436113  0.03812778  1
  C  C2101  1  0.52511100  0.93436113  0.23812778  1
  C  C2102  1  0.52511100  0.93436113  0.43812777  1
  C  C2103  1  0.52511100  0.93436113  0.63812777  1
  C  C2104  1  0.52511100  0.93436113  0.83812777  1
  C  C2105  1  0.52511100  0.80936113  0.06312777  1
  C  C2106  1  0.52511100  0.80936113  0.26312778  1
  C  C2107  1  0.52511100  0.80936113  0.46312778  1
  C  C2108  1  0.52511100  0.80936113  0.66312777  1
  C  C2109  1  0.52511100  0.80936113  0.86312777  1
  C  C2110  1  0.52511100  0.68436113  0.08812778  1
  C  C2111  1  0.52511100  0.68436113  0.28812777  1
  C  C2112  1  0.52511100  0.68436113  0.48812777  1
  C  C2113  1  0.52511100  0.68436113  0.68812777  1
  C  C2114  1  0.52511100  0.68436113  0.88812778  1
  C  C2115  1  0.52511100  0.55936113  0.11312777  1
  C  C2116  1  0.52511100  0.55936113  0.31312777  1
  C  C2117  1  0.52511100  0.55936113  0.51312777  1
  C  C2118  1  0.52511100  0.55936113  0.71312778  1
  C  C2119  1  0.52511100  0.55936113  0.91312778  1
  C  C2120  1  0.52511100  0.43436113  0.13812778  1
  C  C2121  1  0.52511100  0.43436113  0.33812778  1
  C  C2122  1  0.52511100  0.43436113  0.53812777  1
  C  C2123  1  0.52511100  0.43436113  0.73812777  1
  C  C2124  1  0.52511100  0.43436113  0.93812778  1
  C  C2125  1  0.52511100  0.30936113  0.16312778  1
  C  C2126  1  0.52511100  0.30936113  0.36312777  1
  C  C2127  1  0.52511100  0.30936113  0.56312777  1
  C  C2128  1  0.52511100  0.30936113  0.76312777  1
  C  C2129  1  0.52511100  0.30936113  0.96312778  1
  C  C2130  1  0.52511100  0.18436113  0.18812777  1
  C  C2131  1  0.52511100  0.18436113  0.38812778  1
  C  C2132  1  0.52511100  0.18436113  0.58812778  1
  C  C2133  1  0.52511100  0.18436113  0.78812778  1
  C  C2134  1  0.52511100  0.18436113  0.98812778  1
  C  C2135  1  0.52511100  0.93436113  0.06312777  1
  C  C2136  1  0.52511100  0.93436113  0.26312778  1
  C  C2137  1  0.52511100  0.93436113  0.46312778  1
  C  C2138  1  0.52511100  0.93436113  0.66312777  1
  C  C2139  1  0.52511100  0.93436113  0.86312777  1
  C  C2140  1  0.52511100  0.80936113  0.08812778  1
  C  C2141  1  0.52511100  0.80936113  0.28812777  1
  C  C2142  1  0.52511100  0.80936113  0.48812777  1
  C  C2143  1  0.52511100  0.80936113  0.68812777  1
  C  C2144  1  0.52511100  0.80936113  0.88812778  1
  C  C2145  1  0.52511100  0.68436113  0.11312777  1
  C  C2146  1  0.52511100  0.68436113  0.31312777  1
  C  C2147  1  0.52511100  0.68436113  0.51312777  1
  C  C2148  1  0.52511100  0.68436113  0.71312778  1
  C  C2149  1  0.52511100  0.68436113  0.91312777  1
  C  C2150  1  0.52511100  0.55936113  0.13812778  1
  C  C2151  1  0.52511100  0.55936113  0.33812778  1
  C  C2152  1  0.52511100  0.55936113  0.53812777  1
  C  C2153  1  0.52511100  0.55936113  0.73812777  1
  C  C2154  1  0.52511100  0.55936113  0.93812778  1
  C  C2155  1  0.52511100  0.43436113  0.16312778  1
  C  C2156  1  0.52511100  0.43436113  0.36312777  1
  C  C2157  1  0.52511100  0.43436113  0.56312777  1
  C  C2158  1  0.52511100  0.43436113  0.76312777  1
  C  C2159  1  0.52511100  0.43436113  0.96312778  1
  C  C2160  1  0.52511100  0.30936113  0.18812777  1
  C  C2161  1  0.52511100  0.30936113  0.38812778  1
  C  C2162  1  0.52511100  0.30936113  0.58812778  1
  C  C2163  1  0.52511100  0.30936113  0.78812777  1
  C  C2164  1  0.52511100  0.30936113  0.98812778  1
  C  C2165  1  0.52511100  0.93436113  0.08812778  1
  C  C2166  1  0.52511100  0.93436113  0.28812777  1
  C  C2167  1  0.52511100  0.93436113  0.48812777  1
  C  C2168  1  0.52511100  0.93436113  0.68812777  1
  C  C2169  1  0.52511100  0.93436113  0.88812778  1
  C  C2170  1  0.52511100  0.80936113  0.11312777  1
  C  C2171  1  0.52511100  0.80936113  0.31312777  1
  C  C2172  1  0.52511100  0.80936113  0.51312777  1
  C  C2173  1  0.52511100  0.80936113  0.71312778  1
  C  C2174  1  0.52511100  0.80936113  0.91312777  1
  C  C2175  1  0.52511100  0.68436113  0.13812778  1
  C  C2176  1  0.52511100  0.68436113  0.33812778  1
  C  C2177  1  0.52511100  0.68436113  0.53812777  1
  C  C2178  1  0.52511100  0.68436113  0.73812777  1
  C  C2179  1  0.52511100  0.68436113  0.93812778  1
  C  C2180  1  0.52511100  0.55936113  0.16312778  1
  C  C2181  1  0.52511100  0.55936113  0.36312777  1
  C  C2182  1  0.52511100  0.55936113  0.56312777  1
  C  C2183  1  0.52511100  0.55936113  0.76312777  1
  C  C2184  1  0.52511100  0.55936113  0.96312778  1
  C  C2185  1  0.52511100  0.43436113  0.18812777  1
  C  C2186  1  0.52511100  0.43436113  0.38812778  1
  C  C2187  1  0.52511100  0.43436113  0.58812778  1
  C  C2188  1  0.52511100  0.43436113  0.78812777  1
  C  C2189  1  0.52511100  0.43436113  0.98812778  1
  C  C2190  1  0.52511100  0.93436113  0.11312777  1
  C  C2191  1  0.52511100  0.93436113  0.31312777  1
  C  C2192  1  0.52511100  0.93436113  0.51312777  1
  C  C2193  1  0.52511100  0.93436113  0.71312778  1
  C  C2194  1  0.52511100  0.93436113  0.91312777  1
  C  C2195  1  0.52511100  0.80936113  0.13812778  1
  C  C2196  1  0.52511100  0.80936113  0.33812778  1
  C  C2197  1  0.52511100  0.80936113  0.53812777  1
  C  C2198  1  0.52511100  0.80936113  0.73812777  1
  C  C2199  1  0.52511100  0.80936113  0.93812778  1
  C  C2200  1  0.52511100  0.68436113  0.16312778  1
  C  C2201  1  0.52511100  0.68436113  0.36312777  1
  C  C2202  1  0.52511100  0.68436113  0.56312777  1
  C  C2203  1  0.52511100  0.68436113  0.76312777  1
  C  C2204  1  0.52511100  0.68436113  0.96312778  1
  C  C2205  1  0.52511100  0.55936113  0.18812777  1
  C  C2206  1  0.52511100  0.55936113  0.38812778  1
  C  C2207  1  0.52511100  0.55936113  0.58812778  1
  C  C2208  1  0.52511100  0.55936113  0.78812777  1
  C  C2209  1  0.52511100  0.55936113  0.98812778  1
  C  C2210  1  0.52511100  0.93436113  0.13812778  1
  C  C2211  1  0.52511100  0.93436113  0.33812778  1
  C  C2212  1  0.52511100  0.93436113  0.53812777  1
  C  C2213  1  0.52511100  0.93436113  0.73812777  1
  C  C2214  1  0.52511100  0.93436113  0.93812778  1
  C  C2215  1  0.52511100  0.80936113  0.16312778  1
  C  C2216  1  0.52511100  0.80936113  0.36312777  1
  C  C2217  1  0.52511100  0.80936113  0.56312777  1
  C  C2218  1  0.52511100  0.80936113  0.76312777  1
  C  C2219  1  0.52511100  0.80936113  0.96312778  1
  C  C2220  1  0.52511100  0.68436113  0.18812777  1
  C  C2221  1  0.52511100  0.68436113  0.38812778  1
  C  C2222  1  0.52511100  0.68436113  0.58812778  1
  C  C2223  1  0.52511100  0.68436113  0.78812777  1
  C  C2224  1  0.52511100  0.68436113  0.98812778  1
  C  C2225  1  0.52511100  0.93436113  0.16312778  1
  C  C2226  1  0.52511100  0.93436113  0.36312777  1
  C  C2227  1  0.52511100  0.93436113  0.56312777  1
  C  C2228  1  0.52511100  0.93436113  0.76312777  1
  C  C2229  1  0.52511100  0.93436113  0.96312778  1
  C  C2230  1  0.52511100  0.80936113  0.18812777  1
  C  C2231  1  0.52511100  0.80936113  0.38812778  1
  C  C2232  1  0.52511100  0.80936113  0.58812778  1
  C  C2233  1  0.52511100  0.80936113  0.78812777  1
  C  C2234  1  0.52511100  0.80936113  0.98812778  1
  C  C2235  1  0.52511100  0.93436113  0.18812777  1
  C  C2236  1  0.52511100  0.93436113  0.38812778  1
  C  C2237  1  0.52511100  0.93436113  0.58812778  1
  C  C2238  1  0.52511100  0.93436113  0.78812777  1
  C  C2239  1  0.52511100  0.93436113  0.98812778  1
  C  C2240  1  0.02508800  0.08019733  0.01729387  1
  C  C2241  1  0.02508800  0.08019733  0.21729387  1
  C  C2242  1  0.02508800  0.08019733  0.41729387  1
  C  C2243  1  0.02508800  0.08019733  0.61729387  1
  C  C2244  1  0.02508800  0.08019733  0.81729387  1
  C  C2245  1  0.02508800  0.20519733  0.01729387  1
  C  C2246  1  0.02508800  0.20519733  0.21729387  1
  C  C2247  1  0.02508800  0.20519733  0.41729387  1
  C  C2248  1  0.02508800  0.20519733  0.61729387  1
  C  C2249  1  0.02508800  0.20519733  0.81729387  1
  C  C2250  1  0.02508800  0.08019733  0.04229387  1
  C  C2251  1  0.02508800  0.08019733  0.24229387  1
  C  C2252  1  0.02508800  0.08019733  0.44229387  1
  C  C2253  1  0.02508800  0.08019733  0.64229387  1
  C  C2254  1  0.02508800  0.08019733  0.84229387  1
  C  C2255  1  0.02508800  0.33019733  0.01729387  1
  C  C2256  1  0.02508800  0.33019733  0.21729387  1
  C  C2257  1  0.02508800  0.33019733  0.41729387  1
  C  C2258  1  0.02508800  0.33019733  0.61729387  1
  C  C2259  1  0.02508800  0.33019733  0.81729387  1
  C  C2260  1  0.02508800  0.20519733  0.04229387  1
  C  C2261  1  0.02508800  0.20519733  0.24229387  1
  C  C2262  1  0.02508800  0.20519733  0.44229387  1
  C  C2263  1  0.02508800  0.20519733  0.64229387  1
  C  C2264  1  0.02508800  0.20519733  0.84229387  1
  C  C2265  1  0.02508800  0.08019733  0.06729387  1
  C  C2266  1  0.02508800  0.08019733  0.26729387  1
  C  C2267  1  0.02508800  0.08019733  0.46729387  1
  C  C2268  1  0.02508800  0.08019733  0.66729387  1
  C  C2269  1  0.02508800  0.08019733  0.86729387  1
  C  C2270  1  0.02508800  0.45519733  0.01729387  1
  C  C2271  1  0.02508800  0.45519733  0.21729387  1
  C  C2272  1  0.02508800  0.45519733  0.41729387  1
  C  C2273  1  0.02508800  0.45519733  0.61729387  1
  C  C2274  1  0.02508800  0.45519733  0.81729387  1
  C  C2275  1  0.02508800  0.33019733  0.04229387  1
  C  C2276  1  0.02508800  0.33019733  0.24229387  1
  C  C2277  1  0.02508800  0.33019733  0.44229387  1
  C  C2278  1  0.02508800  0.33019733  0.64229387  1
  C  C2279  1  0.02508800  0.33019733  0.84229387  1
  C  C2280  1  0.02508800  0.20519733  0.06729387  1
  C  C2281  1  0.02508800  0.20519733  0.26729387  1
  C  C2282  1  0.02508800  0.20519733  0.46729387  1
  C  C2283  1  0.02508800  0.20519733  0.66729387  1
  C  C2284  1  0.02508800  0.20519733  0.86729387  1
  C  C2285  1  0.02508800  0.08019733  0.09229387  1
  C  C2286  1  0.02508800  0.08019733  0.29229387  1
  C  C2287  1  0.02508800  0.08019733  0.49229387  1
  C  C2288  1  0.02508800  0.08019733  0.69229387  1
  C  C2289  1  0.02508800  0.08019733  0.89229387  1
  C  C2290  1  0.02508800  0.58019733  0.01729387  1
  C  C2291  1  0.02508800  0.58019733  0.21729387  1
  C  C2292  1  0.02508800  0.58019733  0.41729387  1
  C  C2293  1  0.02508800  0.58019733  0.61729387  1
  C  C2294  1  0.02508800  0.58019733  0.81729387  1
  C  C2295  1  0.02508800  0.45519733  0.04229387  1
  C  C2296  1  0.02508800  0.45519733  0.24229387  1
  C  C2297  1  0.02508800  0.45519733  0.44229387  1
  C  C2298  1  0.02508800  0.45519733  0.64229387  1
  C  C2299  1  0.02508800  0.45519733  0.84229387  1
  C  C2300  1  0.02508800  0.33019733  0.06729387  1
  C  C2301  1  0.02508800  0.33019733  0.26729387  1
  C  C2302  1  0.02508800  0.33019733  0.46729387  1
  C  C2303  1  0.02508800  0.33019733  0.66729387  1
  C  C2304  1  0.02508800  0.33019733  0.86729387  1
  C  C2305  1  0.02508800  0.20519733  0.09229387  1
  C  C2306  1  0.02508800  0.20519733  0.29229387  1
  C  C2307  1  0.02508800  0.20519733  0.49229387  1
  C  C2308  1  0.02508800  0.20519733  0.69229387  1
  C  C2309  1  0.02508800  0.20519733  0.89229387  1
  C  C2310  1  0.02508800  0.08019733  0.11729387  1
  C  C2311  1  0.02508800  0.08019733  0.31729387  1
  C  C2312  1  0.02508800  0.08019733  0.51729387  1
  C  C2313  1  0.02508800  0.08019733  0.71729387  1
  C  C2314  1  0.02508800  0.08019733  0.91729387  1
  C  C2315  1  0.02508800  0.70519733  0.01729387  1
  C  C2316  1  0.02508800  0.70519733  0.21729387  1
  C  C2317  1  0.02508800  0.70519733  0.41729387  1
  C  C2318  1  0.02508800  0.70519733  0.61729387  1
  C  C2319  1  0.02508800  0.70519733  0.81729387  1
  C  C2320  1  0.02508800  0.58019733  0.04229387  1
  C  C2321  1  0.02508800  0.58019733  0.24229387  1
  C  C2322  1  0.02508800  0.58019733  0.44229387  1
  C  C2323  1  0.02508800  0.58019733  0.64229387  1
  C  C2324  1  0.02508800  0.58019733  0.84229387  1
  C  C2325  1  0.02508800  0.45519733  0.06729387  1
  C  C2326  1  0.02508800  0.45519733  0.26729387  1
  C  C2327  1  0.02508800  0.45519733  0.46729387  1
  C  C2328  1  0.02508800  0.45519733  0.66729387  1
  C  C2329  1  0.02508800  0.45519733  0.86729387  1
  C  C2330  1  0.02508800  0.33019733  0.09229387  1
  C  C2331  1  0.02508800  0.33019733  0.29229387  1
  C  C2332  1  0.02508800  0.33019733  0.49229387  1
  C  C2333  1  0.02508800  0.33019733  0.69229387  1
  C  C2334  1  0.02508800  0.33019733  0.89229387  1
  C  C2335  1  0.02508800  0.20519733  0.11729387  1
  C  C2336  1  0.02508800  0.20519733  0.31729387  1
  C  C2337  1  0.02508800  0.20519733  0.51729387  1
  C  C2338  1  0.02508800  0.20519733  0.71729387  1
  C  C2339  1  0.02508800  0.20519733  0.91729387  1
  C  C2340  1  0.02508800  0.08019733  0.14229387  1
  C  C2341  1  0.02508800  0.08019733  0.34229387  1
  C  C2342  1  0.02508800  0.08019733  0.54229387  1
  C  C2343  1  0.02508800  0.08019733  0.74229387  1
  C  C2344  1  0.02508800  0.08019733  0.94229387  1
  C  C2345  1  0.02508800  0.83019733  0.01729387  1
  C  C2346  1  0.02508800  0.83019733  0.21729387  1
  C  C2347  1  0.02508800  0.83019733  0.41729387  1
  C  C2348  1  0.02508800  0.83019733  0.61729387  1
  C  C2349  1  0.02508800  0.83019733  0.81729387  1
  C  C2350  1  0.02508800  0.70519733  0.04229387  1
  C  C2351  1  0.02508800  0.70519733  0.24229387  1
  C  C2352  1  0.02508800  0.70519733  0.44229387  1
  C  C2353  1  0.02508800  0.70519733  0.64229387  1
  C  C2354  1  0.02508800  0.70519733  0.84229387  1
  C  C2355  1  0.02508800  0.58019733  0.06729387  1
  C  C2356  1  0.02508800  0.58019733  0.26729387  1
  C  C2357  1  0.02508800  0.58019733  0.46729387  1
  C  C2358  1  0.02508800  0.58019733  0.66729387  1
  C  C2359  1  0.02508800  0.58019733  0.86729387  1
  C  C2360  1  0.02508800  0.45519733  0.09229387  1
  C  C2361  1  0.02508800  0.45519733  0.29229387  1
  C  C2362  1  0.02508800  0.45519733  0.49229387  1
  C  C2363  1  0.02508800  0.45519733  0.69229387  1
  C  C2364  1  0.02508800  0.45519733  0.89229387  1
  C  C2365  1  0.02508800  0.33019733  0.11729387  1
  C  C2366  1  0.02508800  0.33019733  0.31729387  1
  C  C2367  1  0.02508800  0.33019733  0.51729387  1
  C  C2368  1  0.02508800  0.33019733  0.71729387  1
  C  C2369  1  0.02508800  0.33019733  0.91729387  1
  C  C2370  1  0.02508800  0.20519733  0.14229387  1
  C  C2371  1  0.02508800  0.20519733  0.34229387  1
  C  C2372  1  0.02508800  0.20519733  0.54229387  1
  C  C2373  1  0.02508800  0.20519733  0.74229387  1
  C  C2374  1  0.02508800  0.20519733  0.94229387  1
  C  C2375  1  0.02508800  0.08019733  0.16729387  1
  C  C2376  1  0.02508800  0.08019733  0.36729387  1
  C  C2377  1  0.02508800  0.08019733  0.56729387  1
  C  C2378  1  0.02508800  0.08019733  0.76729387  1
  C  C2379  1  0.02508800  0.08019733  0.96729387  1
  C  C2380  1  0.02508800  0.95519733  0.01729387  1
  C  C2381  1  0.02508800  0.95519733  0.21729387  1
  C  C2382  1  0.02508800  0.95519733  0.41729387  1
  C  C2383  1  0.02508800  0.95519733  0.61729387  1
  C  C2384  1  0.02508800  0.95519733  0.81729387  1
  C  C2385  1  0.02508800  0.83019733  0.04229387  1
  C  C2386  1  0.02508800  0.83019733  0.24229387  1
  C  C2387  1  0.02508800  0.83019733  0.44229387  1
  C  C2388  1  0.02508800  0.83019733  0.64229387  1
  C  C2389  1  0.02508800  0.83019733  0.84229387  1
  C  C2390  1  0.02508800  0.70519733  0.06729387  1
  C  C2391  1  0.02508800  0.70519733  0.26729387  1
  C  C2392  1  0.02508800  0.70519733  0.46729387  1
  C  C2393  1  0.02508800  0.70519733  0.66729387  1
  C  C2394  1  0.02508800  0.70519733  0.86729387  1
  C  C2395  1  0.02508800  0.58019733  0.09229387  1
  C  C2396  1  0.02508800  0.58019733  0.29229387  1
  C  C2397  1  0.02508800  0.58019733  0.49229387  1
  C  C2398  1  0.02508800  0.58019733  0.69229387  1
  C  C2399  1  0.02508800  0.58019733  0.89229387  1
  C  C2400  1  0.02508800  0.45519733  0.11729387  1
  C  C2401  1  0.02508800  0.45519733  0.31729387  1
  C  C2402  1  0.02508800  0.45519733  0.51729387  1
  C  C2403  1  0.02508800  0.45519733  0.71729387  1
  C  C2404  1  0.02508800  0.45519733  0.91729387  1
  C  C2405  1  0.02508800  0.33019733  0.14229387  1
  C  C2406  1  0.02508800  0.33019733  0.34229387  1
  C  C2407  1  0.02508800  0.33019733  0.54229387  1
  C  C2408  1  0.02508800  0.33019733  0.74229387  1
  C  C2409  1  0.02508800  0.33019733  0.94229387  1
  C  C2410  1  0.02508800  0.20519733  0.16729387  1
  C  C2411  1  0.02508800  0.20519733  0.36729387  1
  C  C2412  1  0.02508800  0.20519733  0.56729387  1
  C  C2413  1  0.02508800  0.20519733  0.76729387  1
  C  C2414  1  0.02508800  0.20519733  0.96729387  1
  C  C2415  1  0.02508800  0.08019733  0.19229387  1
  C  C2416  1  0.02508800  0.08019733  0.39229387  1
  C  C2417  1  0.02508800  0.08019733  0.59229387  1
  C  C2418  1  0.02508800  0.08019733  0.79229387  1
  C  C2419  1  0.02508800  0.08019733  0.99229387  1
  C  C2420  1  0.02508800  0.95519733  0.04229387  1
  C  C2421  1  0.02508800  0.95519733  0.24229387  1
  C  C2422  1  0.02508800  0.95519733  0.44229387  1
  C  C2423  1  0.02508800  0.95519733  0.64229387  1
  C  C2424  1  0.02508800  0.95519733  0.84229387  1
  C  C2425  1  0.02508800  0.83019733  0.06729387  1
  C  C2426  1  0.02508800  0.83019733  0.26729387  1
  C  C2427  1  0.02508800  0.83019733  0.46729387  1
  C  C2428  1  0.02508800  0.83019733  0.66729387  1
  C  C2429  1  0.02508800  0.83019733  0.86729387  1
  C  C2430  1  0.02508800  0.70519733  0.09229387  1
  C  C2431  1  0.02508800  0.70519733  0.29229387  1
  C  C2432  1  0.02508800  0.70519733  0.49229387  1
  C  C2433  1  0.02508800  0.70519733  0.69229387  1
  C  C2434  1  0.02508800  0.70519733  0.89229387  1
  C  C2435  1  0.02508800  0.58019733  0.11729387  1
  C  C2436  1  0.02508800  0.58019733  0.31729387  1
  C  C2437  1  0.02508800  0.58019733  0.51729387  1
  C  C2438  1  0.02508800  0.58019733  0.71729387  1
  C  C2439  1  0.02508800  0.58019733  0.91729387  1
  C  C2440  1  0.02508800  0.45519733  0.14229387  1
  C  C2441  1  0.02508800  0.45519733  0.34229387  1
  C  C2442  1  0.02508800  0.45519733  0.54229387  1
  C  C2443  1  0.02508800  0.45519733  0.74229387  1
  C  C2444  1  0.02508800  0.45519733  0.94229387  1
  C  C2445  1  0.02508800  0.33019733  0.16729387  1
  C  C2446  1  0.02508800  0.33019733  0.36729387  1
  C  C2447  1  0.02508800  0.33019733  0.56729387  1
  C  C2448  1  0.02508800  0.33019733  0.76729387  1
  C  C2449  1  0.02508800  0.33019733  0.96729387  1
  C  C2450  1  0.02508800  0.20519733  0.19229387  1
  C  C2451  1  0.02508800  0.20519733  0.39229387  1
  C  C2452  1  0.02508800  0.20519733  0.59229387  1
  C  C2453  1  0.02508800  0.20519733  0.79229387  1
  C  C2454  1  0.02508800  0.20519733  0.99229387  1
  C  C2455  1  0.02508800  0.95519733  0.06729387  1
  C  C2456  1  0.02508800  0.95519733  0.26729387  1
  C  C2457  1  0.02508800  0.95519733  0.46729387  1
  C  C2458  1  0.02508800  0.95519733  0.66729387  1
  C  C2459  1  0.02508800  0.95519733  0.86729387  1
  C  C2460  1  0.02508800  0.83019733  0.09229387  1
  C  C2461  1  0.02508800  0.83019733  0.29229387  1
  C  C2462  1  0.02508800  0.83019733  0.49229387  1
  C  C2463  1  0.02508800  0.83019733  0.69229387  1
  C  C2464  1  0.02508800  0.83019733  0.89229387  1
  C  C2465  1  0.02508800  0.70519733  0.11729387  1
  C  C2466  1  0.02508800  0.70519733  0.31729387  1
  C  C2467  1  0.02508800  0.70519733  0.51729387  1
  C  C2468  1  0.02508800  0.70519733  0.71729387  1
  C  C2469  1  0.02508800  0.70519733  0.91729387  1
  C  C2470  1  0.02508800  0.58019733  0.14229387  1
  C  C2471  1  0.02508800  0.58019733  0.34229387  1
  C  C2472  1  0.02508800  0.58019733  0.54229387  1
  C  C2473  1  0.02508800  0.58019733  0.74229387  1
  C  C2474  1  0.02508800  0.58019733  0.94229387  1
  C  C2475  1  0.02508800  0.45519733  0.16729387  1
  C  C2476  1  0.02508800  0.45519733  0.36729387  1
  C  C2477  1  0.02508800  0.45519733  0.56729387  1
  C  C2478  1  0.02508800  0.45519733  0.76729387  1
  C  C2479  1  0.02508800  0.45519733  0.96729387  1
  C  C2480  1  0.02508800  0.33019733  0.19229387  1
  C  C2481  1  0.02508800  0.33019733  0.39229387  1
  C  C2482  1  0.02508800  0.33019733  0.59229387  1
  C  C2483  1  0.02508800  0.33019733  0.79229387  1
  C  C2484  1  0.02508800  0.33019733  0.99229387  1
  C  C2485  1  0.02508800  0.95519733  0.09229387  1
  C  C2486  1  0.02508800  0.95519733  0.29229387  1
  C  C2487  1  0.02508800  0.95519733  0.49229387  1
  C  C2488  1  0.02508800  0.95519733  0.69229387  1
  C  C2489  1  0.02508800  0.95519733  0.89229387  1
  C  C2490  1  0.02508800  0.83019733  0.11729387  1
  C  C2491  1  0.02508800  0.83019733  0.31729387  1
  C  C2492  1  0.02508800  0.83019733  0.51729387  1
  C  C2493  1  0.02508800  0.83019733  0.71729387  1
  C  C2494  1  0.02508800  0.83019733  0.91729387  1
  C  C2495  1  0.02508800  0.70519733  0.14229387  1
  C  C2496  1  0.02508800  0.70519733  0.34229387  1
  C  C2497  1  0.02508800  0.70519733  0.54229387  1
  C  C2498  1  0.02508800  0.70519733  0.74229387  1
  C  C2499  1  0.02508800  0.70519733  0.94229387  1
  C  C2500  1  0.02508800  0.58019733  0.16729387  1
  C  C2501  1  0.02508800  0.58019733  0.36729387  1
  C  C2502  1  0.02508800  0.58019733  0.56729387  1
  C  C2503  1  0.02508800  0.58019733  0.76729387  1
  C  C2504  1  0.02508800  0.58019733  0.96729387  1
  C  C2505  1  0.02508800  0.45519733  0.19229387  1
  C  C2506  1  0.02508800  0.45519733  0.39229387  1
  C  C2507  1  0.02508800  0.45519733  0.59229387  1
  C  C2508  1  0.02508800  0.45519733  0.79229387  1
  C  C2509  1  0.02508800  0.45519733  0.99229387  1
  C  C2510  1  0.02508800  0.95519733  0.11729387  1
  C  C2511  1  0.02508800  0.95519733  0.31729387  1
  C  C2512  1  0.02508800  0.95519733  0.51729387  1
  C  C2513  1  0.02508800  0.95519733  0.71729387  1
  C  C2514  1  0.02508800  0.95519733  0.91729387  1
  C  C2515  1  0.02508800  0.83019733  0.14229387  1
  C  C2516  1  0.02508800  0.83019733  0.34229387  1
  C  C2517  1  0.02508800  0.83019733  0.54229387  1
  C  C2518  1  0.02508800  0.83019733  0.74229387  1
  C  C2519  1  0.02508800  0.83019733  0.94229387  1
  C  C2520  1  0.02508800  0.70519733  0.16729387  1
  C  C2521  1  0.02508800  0.70519733  0.36729387  1
  C  C2522  1  0.02508800  0.70519733  0.56729387  1
  C  C2523  1  0.02508800  0.70519733  0.76729387  1
  C  C2524  1  0.02508800  0.70519733  0.96729387  1
  C  C2525  1  0.02508800  0.58019733  0.19229387  1
  C  C2526  1  0.02508800  0.58019733  0.39229387  1
  C  C2527  1  0.02508800  0.58019733  0.59229387  1
  C  C2528  1  0.02508800  0.58019733  0.79229387  1
  C  C2529  1  0.02508800  0.58019733  0.99229387  1
  C  C2530  1  0.02508800  0.95519733  0.14229387  1
  C  C2531  1  0.02508800  0.95519733  0.34229387  1
  C  C2532  1  0.02508800  0.95519733  0.54229387  1
  C  C2533  1  0.02508800  0.95519733  0.74229387  1
  C  C2534  1  0.02508800  0.95519733  0.94229387  1
  C  C2535  1  0.02508800  0.83019733  0.16729387  1
  C  C2536  1  0.02508800  0.83019733  0.36729387  1
  C  C2537  1  0.02508800  0.83019733  0.56729387  1
  C  C2538  1  0.02508800  0.83019733  0.76729387  1
  C  C2539  1  0.02508800  0.83019733  0.96729387  1
  C  C2540  1  0.02508800  0.70519733  0.19229387  1
  C  C2541  1  0.02508800  0.70519733  0.39229387  1
  C  C2542  1  0.02508800  0.70519733  0.59229387  1
  C  C2543  1  0.02508800  0.70519733  0.79229387  1
  C  C2544  1  0.02508800  0.70519733  0.99229387  1
  C  C2545  1  0.02508800  0.95519733  0.16729387  1
  C  C2546  1  0.02508800  0.95519733  0.36729387  1
  C  C2547  1  0.02508800  0.95519733  0.56729387  1
  C  C2548  1  0.02508800  0.95519733  0.76729387  1
  C  C2549  1  0.02508800  0.95519733  0.96729387  1
  C  C2550  1  0.02508800  0.83019733  0.19229387  1
  C  C2551  1  0.02508800  0.83019733  0.39229387  1
  C  C2552  1  0.02508800  0.83019733  0.59229387  1
  C  C2553  1  0.02508800  0.83019733  0.79229387  1
  C  C2554  1  0.02508800  0.83019733  0.99229387  1
  C  C2555  1  0.02508800  0.95519733  0.19229387  1
  C  C2556  1  0.02508800  0.95519733  0.39229387  1
  C  C2557  1  0.02508800  0.95519733  0.59229387  1
  C  C2558  1  0.02508800  0.95519733  0.79229387  1
  C  C2559  1  0.02508800  0.95519733  0.99229387  1
  C  C2560  1  0.62482400  0.08856367  0.02395393  1
  C  C2561  1  0.62482400  0.08856367  0.22395393  1
  C  C2562  1  0.62482400  0.08856367  0.42395393  1
  C  C2563  1  0.62482400  0.08856367  0.62395393  1
  C  C2564  1  0.62482400  0.08856367  0.82395393  1
  C  C2565  1  0.62482400  0.21356367  0.02395393  1
  C  C2566  1  0.62482400  0.21356367  0.22395393  1
  C  C2567  1  0.62482400  0.21356367  0.42395393  1
  C  C2568  1  0.62482400  0.21356367  0.62395393  1
  C  C2569  1  0.62482400  0.21356367  0.82395393  1
  C  C2570  1  0.62482400  0.08856367  0.04895393  1
  C  C2571  1  0.62482400  0.08856367  0.24895393  1
  C  C2572  1  0.62482400  0.08856367  0.44895393  1
  C  C2573  1  0.62482400  0.08856367  0.64895393  1
  C  C2574  1  0.62482400  0.08856367  0.84895393  1
  C  C2575  1  0.62482400  0.33856367  0.02395393  1
  C  C2576  1  0.62482400  0.33856367  0.22395393  1
  C  C2577  1  0.62482400  0.33856367  0.42395393  1
  C  C2578  1  0.62482400  0.33856367  0.62395393  1
  C  C2579  1  0.62482400  0.33856367  0.82395393  1
  C  C2580  1  0.62482400  0.21356367  0.04895393  1
  C  C2581  1  0.62482400  0.21356367  0.24895393  1
  C  C2582  1  0.62482400  0.21356367  0.44895393  1
  C  C2583  1  0.62482400  0.21356367  0.64895393  1
  C  C2584  1  0.62482400  0.21356367  0.84895393  1
  C  C2585  1  0.62482400  0.08856367  0.07395393  1
  C  C2586  1  0.62482400  0.08856367  0.27395393  1
  C  C2587  1  0.62482400  0.08856367  0.47395393  1
  C  C2588  1  0.62482400  0.08856367  0.67395393  1
  C  C2589  1  0.62482400  0.08856367  0.87395393  1
  C  C2590  1  0.62482400  0.46356367  0.02395393  1
  C  C2591  1  0.62482400  0.46356367  0.22395393  1
  C  C2592  1  0.62482400  0.46356367  0.42395393  1
  C  C2593  1  0.62482400  0.46356367  0.62395393  1
  C  C2594  1  0.62482400  0.46356367  0.82395393  1
  C  C2595  1  0.62482400  0.33856367  0.04895393  1
  C  C2596  1  0.62482400  0.33856367  0.24895393  1
  C  C2597  1  0.62482400  0.33856367  0.44895393  1
  C  C2598  1  0.62482400  0.33856367  0.64895393  1
  C  C2599  1  0.62482400  0.33856367  0.84895393  1
  C  C2600  1  0.62482400  0.21356367  0.07395393  1
  C  C2601  1  0.62482400  0.21356367  0.27395393  1
  C  C2602  1  0.62482400  0.21356367  0.47395393  1
  C  C2603  1  0.62482400  0.21356367  0.67395393  1
  C  C2604  1  0.62482400  0.21356367  0.87395393  1
  C  C2605  1  0.62482400  0.08856367  0.09895393  1
  C  C2606  1  0.62482400  0.08856367  0.29895393  1
  C  C2607  1  0.62482400  0.08856367  0.49895393  1
  C  C2608  1  0.62482400  0.08856367  0.69895393  1
  C  C2609  1  0.62482400  0.08856367  0.89895393  1
  C  C2610  1  0.62482400  0.58856367  0.02395393  1
  C  C2611  1  0.62482400  0.58856367  0.22395393  1
  C  C2612  1  0.62482400  0.58856367  0.42395393  1
  C  C2613  1  0.62482400  0.58856367  0.62395393  1
  C  C2614  1  0.62482400  0.58856367  0.82395393  1
  C  C2615  1  0.62482400  0.46356367  0.04895393  1
  C  C2616  1  0.62482400  0.46356367  0.24895393  1
  C  C2617  1  0.62482400  0.46356367  0.44895393  1
  C  C2618  1  0.62482400  0.46356367  0.64895393  1
  C  C2619  1  0.62482400  0.46356367  0.84895393  1
  C  C2620  1  0.62482400  0.33856367  0.07395393  1
  C  C2621  1  0.62482400  0.33856367  0.27395393  1
  C  C2622  1  0.62482400  0.33856367  0.47395393  1
  C  C2623  1  0.62482400  0.33856367  0.67395393  1
  C  C2624  1  0.62482400  0.33856367  0.87395393  1
  C  C2625  1  0.62482400  0.21356367  0.09895393  1
  C  C2626  1  0.62482400  0.21356367  0.29895393  1
  C  C2627  1  0.62482400  0.21356367  0.49895393  1
  C  C2628  1  0.62482400  0.21356367  0.69895393  1
  C  C2629  1  0.62482400  0.21356367  0.89895393  1
  C  C2630  1  0.62482400  0.08856367  0.12395393  1
  C  C2631  1  0.62482400  0.08856367  0.32395393  1
  C  C2632  1  0.62482400  0.08856367  0.52395393  1
  C  C2633  1  0.62482400  0.08856367  0.72395393  1
  C  C2634  1  0.62482400  0.08856367  0.92395393  1
  C  C2635  1  0.62482400  0.71356367  0.02395393  1
  C  C2636  1  0.62482400  0.71356367  0.22395393  1
  C  C2637  1  0.62482400  0.71356367  0.42395393  1
  C  C2638  1  0.62482400  0.71356367  0.62395393  1
  C  C2639  1  0.62482400  0.71356367  0.82395393  1
  C  C2640  1  0.62482400  0.58856367  0.04895393  1
  C  C2641  1  0.62482400  0.58856367  0.24895393  1
  C  C2642  1  0.62482400  0.58856367  0.44895393  1
  C  C2643  1  0.62482400  0.58856367  0.64895393  1
  C  C2644  1  0.62482400  0.58856367  0.84895393  1
  C  C2645  1  0.62482400  0.46356367  0.07395393  1
  C  C2646  1  0.62482400  0.46356367  0.27395393  1
  C  C2647  1  0.62482400  0.46356367  0.47395393  1
  C  C2648  1  0.62482400  0.46356367  0.67395393  1
  C  C2649  1  0.62482400  0.46356367  0.87395393  1
  C  C2650  1  0.62482400  0.33856367  0.09895393  1
  C  C2651  1  0.62482400  0.33856367  0.29895393  1
  C  C2652  1  0.62482400  0.33856367  0.49895393  1
  C  C2653  1  0.62482400  0.33856367  0.69895393  1
  C  C2654  1  0.62482400  0.33856367  0.89895393  1
  C  C2655  1  0.62482400  0.21356367  0.12395393  1
  C  C2656  1  0.62482400  0.21356367  0.32395393  1
  C  C2657  1  0.62482400  0.21356367  0.52395393  1
  C  C2658  1  0.62482400  0.21356367  0.72395393  1
  C  C2659  1  0.62482400  0.21356367  0.92395393  1
  C  C2660  1  0.62482400  0.08856367  0.14895393  1
  C  C2661  1  0.62482400  0.08856367  0.34895393  1
  C  C2662  1  0.62482400  0.08856367  0.54895393  1
  C  C2663  1  0.62482400  0.08856367  0.74895393  1
  C  C2664  1  0.62482400  0.08856367  0.94895393  1
  C  C2665  1  0.62482400  0.83856367  0.02395393  1
  C  C2666  1  0.62482400  0.83856367  0.22395393  1
  C  C2667  1  0.62482400  0.83856367  0.42395393  1
  C  C2668  1  0.62482400  0.83856367  0.62395393  1
  C  C2669  1  0.62482400  0.83856367  0.82395393  1
  C  C2670  1  0.62482400  0.71356367  0.04895393  1
  C  C2671  1  0.62482400  0.71356367  0.24895393  1
  C  C2672  1  0.62482400  0.71356367  0.44895393  1
  C  C2673  1  0.62482400  0.71356367  0.64895393  1
  C  C2674  1  0.62482400  0.71356367  0.84895393  1
  C  C2675  1  0.62482400  0.58856367  0.07395393  1
  C  C2676  1  0.62482400  0.58856367  0.27395393  1
  C  C2677  1  0.62482400  0.58856367  0.47395393  1
  C  C2678  1  0.62482400  0.58856367  0.67395393  1
  C  C2679  1  0.62482400  0.58856367  0.87395393  1
  C  C2680  1  0.62482400  0.46356367  0.09895393  1
  C  C2681  1  0.62482400  0.46356367  0.29895393  1
  C  C2682  1  0.62482400  0.46356367  0.49895393  1
  C  C2683  1  0.62482400  0.46356367  0.69895393  1
  C  C2684  1  0.62482400  0.46356367  0.89895393  1
  C  C2685  1  0.62482400  0.33856367  0.12395393  1
  C  C2686  1  0.62482400  0.33856367  0.32395393  1
  C  C2687  1  0.62482400  0.33856367  0.52395393  1
  C  C2688  1  0.62482400  0.33856367  0.72395393  1
  C  C2689  1  0.62482400  0.33856367  0.92395393  1
  C  C2690  1  0.62482400  0.21356367  0.14895393  1
  C  C2691  1  0.62482400  0.21356367  0.34895393  1
  C  C2692  1  0.62482400  0.21356367  0.54895393  1
  C  C2693  1  0.62482400  0.21356367  0.74895393  1
  C  C2694  1  0.62482400  0.21356367  0.94895393  1
  C  C2695  1  0.62482400  0.08856367  0.17395393  1
  C  C2696  1  0.62482400  0.08856367  0.37395393  1
  C  C2697  1  0.62482400  0.08856367  0.57395393  1
  C  C2698  1  0.62482400  0.08856367  0.77395393  1
  C  C2699  1  0.62482400  0.08856367  0.97395393  1
  C  C2700  1  0.62482400  0.96356367  0.02395393  1
  C  C2701  1  0.62482400  0.96356367  0.22395393  1
  C  C2702  1  0.62482400  0.96356367  0.42395393  1
  C  C2703  1  0.62482400  0.96356367  0.62395393  1
  C  C2704  1  0.62482400  0.96356367  0.82395393  1
  C  C2705  1  0.62482400  0.83856367  0.04895393  1
  C  C2706  1  0.62482400  0.83856367  0.24895393  1
  C  C2707  1  0.62482400  0.83856367  0.44895393  1
  C  C2708  1  0.62482400  0.83856367  0.64895393  1
  C  C2709  1  0.62482400  0.83856367  0.84895393  1
  C  C2710  1  0.62482400  0.71356367  0.07395393  1
  C  C2711  1  0.62482400  0.71356367  0.27395393  1
  C  C2712  1  0.62482400  0.71356367  0.47395393  1
  C  C2713  1  0.62482400  0.71356367  0.67395393  1
  C  C2714  1  0.62482400  0.71356367  0.87395393  1
  C  C2715  1  0.62482400  0.58856367  0.09895393  1
  C  C2716  1  0.62482400  0.58856367  0.29895393  1
  C  C2717  1  0.62482400  0.58856367  0.49895393  1
  C  C2718  1  0.62482400  0.58856367  0.69895393  1
  C  C2719  1  0.62482400  0.58856367  0.89895393  1
  C  C2720  1  0.62482400  0.46356367  0.12395393  1
  C  C2721  1  0.62482400  0.46356367  0.32395393  1
  C  C2722  1  0.62482400  0.46356367  0.52395393  1
  C  C2723  1  0.62482400  0.46356367  0.72395393  1
  C  C2724  1  0.62482400  0.46356367  0.92395393  1
  C  C2725  1  0.62482400  0.33856367  0.14895393  1
  C  C2726  1  0.62482400  0.33856367  0.34895393  1
  C  C2727  1  0.62482400  0.33856367  0.54895393  1
  C  C2728  1  0.62482400  0.33856367  0.74895393  1
  C  C2729  1  0.62482400  0.33856367  0.94895393  1
  C  C2730  1  0.62482400  0.21356367  0.17395393  1
  C  C2731  1  0.62482400  0.21356367  0.37395393  1
  C  C2732  1  0.62482400  0.21356367  0.57395393  1
  C  C2733  1  0.62482400  0.21356367  0.77395393  1
  C  C2734  1  0.62482400  0.21356367  0.97395393  1
  C  C2735  1  0.62482400  0.08856367  0.19895393  1
  C  C2736  1  0.62482400  0.08856367  0.39895393  1
  C  C2737  1  0.62482400  0.08856367  0.59895393  1
  C  C2738  1  0.62482400  0.08856367  0.79895393  1
  C  C2739  1  0.62482400  0.08856367  0.99895393  1
  C  C2740  1  0.62482400  0.96356367  0.04895393  1
  C  C2741  1  0.62482400  0.96356367  0.24895393  1
  C  C2742  1  0.62482400  0.96356367  0.44895393  1
  C  C2743  1  0.62482400  0.96356367  0.64895393  1
  C  C2744  1  0.62482400  0.96356367  0.84895393  1
  C  C2745  1  0.62482400  0.83856367  0.07395393  1
  C  C2746  1  0.62482400  0.83856367  0.27395393  1
  C  C2747  1  0.62482400  0.83856367  0.47395393  1
  C  C2748  1  0.62482400  0.83856367  0.67395393  1
  C  C2749  1  0.62482400  0.83856367  0.87395393  1
  C  C2750  1  0.62482400  0.71356367  0.09895393  1
  C  C2751  1  0.62482400  0.71356367  0.29895393  1
  C  C2752  1  0.62482400  0.71356367  0.49895393  1
  C  C2753  1  0.62482400  0.71356367  0.69895393  1
  C  C2754  1  0.62482400  0.71356367  0.89895393  1
  C  C2755  1  0.62482400  0.58856367  0.12395393  1
  C  C2756  1  0.62482400  0.58856367  0.32395393  1
  C  C2757  1  0.62482400  0.58856367  0.52395393  1
  C  C2758  1  0.62482400  0.58856367  0.72395393  1
  C  C2759  1  0.62482400  0.58856367  0.92395393  1
  C  C2760  1  0.62482400  0.46356367  0.14895393  1
  C  C2761  1  0.62482400  0.46356367  0.34895393  1
  C  C2762  1  0.62482400  0.46356367  0.54895393  1
  C  C2763  1  0.62482400  0.46356367  0.74895393  1
  C  C2764  1  0.62482400  0.46356367  0.94895393  1
  C  C2765  1  0.62482400  0.33856367  0.17395393  1
  C  C2766  1  0.62482400  0.33856367  0.37395393  1
  C  C2767  1  0.62482400  0.33856367  0.57395393  1
  C  C2768  1  0.62482400  0.33856367  0.77395393  1
  C  C2769  1  0.62482400  0.33856367  0.97395393  1
  C  C2770  1  0.62482400  0.21356367  0.19895393  1
  C  C2771  1  0.62482400  0.21356367  0.39895393  1
  C  C2772  1  0.62482400  0.21356367  0.59895393  1
  C  C2773  1  0.62482400  0.21356367  0.79895393  1
  C  C2774  1  0.62482400  0.21356367  0.99895393  1
  C  C2775  1  0.62482400  0.96356367  0.07395393  1
  C  C2776  1  0.62482400  0.96356367  0.27395393  1
  C  C2777  1  0.62482400  0.96356367  0.47395393  1
  C  C2778  1  0.62482400  0.96356367  0.67395393  1
  C  C2779  1  0.62482400  0.96356367  0.87395393  1
  C  C2780  1  0.62482400  0.83856367  0.09895393  1
  C  C2781  1  0.62482400  0.83856367  0.29895393  1
  C  C2782  1  0.62482400  0.83856367  0.49895393  1
  C  C2783  1  0.62482400  0.83856367  0.69895393  1
  C  C2784  1  0.62482400  0.83856367  0.89895393  1
  C  C2785  1  0.62482400  0.71356367  0.12395393  1
  C  C2786  1  0.62482400  0.71356367  0.32395393  1
  C  C2787  1  0.62482400  0.71356367  0.52395393  1
  C  C2788  1  0.62482400  0.71356367  0.72395393  1
  C  C2789  1  0.62482400  0.71356367  0.92395393  1
  C  C2790  1  0.62482400  0.58856367  0.14895393  1
  C  C2791  1  0.62482400  0.58856367  0.34895393  1
  C  C2792  1  0.62482400  0.58856367  0.54895393  1
  C  C2793  1  0.62482400  0.58856367  0.74895393  1
  C  C2794  1  0.62482400  0.58856367  0.94895393  1
  C  C2795  1  0.62482400  0.46356367  0.17395393  1
  C  C2796  1  0.62482400  0.46356367  0.37395393  1
  C  C2797  1  0.62482400  0.46356367  0.57395393  1
  C  C2798  1  0.62482400  0.46356367  0.77395393  1
  C  C2799  1  0.62482400  0.46356367  0.97395393  1
  C  C2800  1  0.62482400  0.33856367  0.19895393  1
  C  C2801  1  0.62482400  0.33856367  0.39895393  1
  C  C2802  1  0.62482400  0.33856367  0.59895393  1
  C  C2803  1  0.62482400  0.33856367  0.79895393  1
  C  C2804  1  0.62482400  0.33856367  0.99895393  1
  C  C2805  1  0.62482400  0.96356367  0.09895393  1
  C  C2806  1  0.62482400  0.96356367  0.29895393  1
  C  C2807  1  0.62482400  0.96356367  0.49895393  1
  C  C2808  1  0.62482400  0.96356367  0.69895393  1
  C  C2809  1  0.62482400  0.96356367  0.89895393  1
  C  C2810  1  0.62482400  0.83856367  0.12395393  1
  C  C2811  1  0.62482400  0.83856367  0.32395393  1
  C  C2812  1  0.62482400  0.83856367  0.52395393  1
  C  C2813  1  0.62482400  0.83856367  0.72395393  1
  C  C2814  1  0.62482400  0.83856367  0.92395393  1
  C  C2815  1  0.62482400  0.71356367  0.14895393  1
  C  C2816  1  0.62482400  0.71356367  0.34895393  1
  C  C2817  1  0.62482400  0.71356367  0.54895393  1
  C  C2818  1  0.62482400  0.71356367  0.74895393  1
  C  C2819  1  0.62482400  0.71356367  0.94895393  1
  C  C2820  1  0.62482400  0.58856367  0.17395393  1
  C  C2821  1  0.62482400  0.58856367  0.37395393  1
  C  C2822  1  0.62482400  0.58856367  0.57395393  1
  C  C2823  1  0.62482400  0.58856367  0.77395393  1
  C  C2824  1  0.62482400  0.58856367  0.97395393  1
  C  C2825  1  0.62482400  0.46356367  0.19895393  1
  C  C2826  1  0.62482400  0.46356367  0.39895393  1
  C  C2827  1  0.62482400  0.46356367  0.59895393  1
  C  C2828  1  0.62482400  0.46356367  0.79895393  1
  C  C2829  1  0.62482400  0.46356367  0.99895393  1
  C  C2830  1  0.62482400  0.96356367  0.12395393  1
  C  C2831  1  0.62482400  0.96356367  0.32395393  1
  C  C2832  1  0.62482400  0.96356367  0.52395393  1
  C  C2833  1  0.62482400  0.96356367  0.72395393  1
  C  C2834  1  0.62482400  0.96356367  0.92395393  1
  C  C2835  1  0.62482400  0.83856367  0.14895393  1
  C  C2836  1  0.62482400  0.83856367  0.34895393  1
  C  C2837  1  0.62482400  0.83856367  0.54895393  1
  C  C2838  1  0.62482400  0.83856367  0.74895393  1
  C  C2839  1  0.62482400  0.83856367  0.94895393  1
  C  C2840  1  0.62482400  0.71356367  0.17395393  1
  C  C2841  1  0.62482400  0.71356367  0.37395393  1
  C  C2842  1  0.62482400  0.71356367  0.57395393  1
  C  C2843  1  0.62482400  0.71356367  0.77395393  1
  C  C2844  1  0.62482400  0.71356367  0.97395393  1
  C  C2845  1  0.62482400  0.58856367  0.19895393  1
  C  C2846  1  0.62482400  0.58856367  0.39895393  1
  C  C2847  1  0.62482400  0.58856367  0.59895393  1
  C  C2848  1  0.62482400  0.58856367  0.79895393  1
  C  C2849  1  0.62482400  0.58856367  0.99895393  1
  C  C2850  1  0.62482400  0.96356367  0.14895393  1
  C  C2851  1  0.62482400  0.96356367  0.34895393  1
  C  C2852  1  0.62482400  0.96356367  0.54895393  1
  C  C2853  1  0.62482400  0.96356367  0.74895393  1
  C  C2854  1  0.62482400  0.96356367  0.94895393  1
  C  C2855  1  0.62482400  0.83856367  0.17395393  1
  C  C2856  1  0.62482400  0.83856367  0.37395393  1
  C  C2857  1  0.62482400  0.83856367  0.57395393  1
  C  C2858  1  0.62482400  0.83856367  0.77395393  1
  C  C2859  1  0.62482400  0.83856367  0.97395393  1
  C  C2860  1  0.62482400  0.71356367  0.19895393  1
  C  C2861  1  0.62482400  0.71356367  0.39895393  1
  C  C2862  1  0.62482400  0.71356367  0.59895393  1
  C  C2863  1  0.62482400  0.71356367  0.79895393  1
  C  C2864  1  0.62482400  0.71356367  0.99895393  1
  C  C2865  1  0.62482400  0.96356367  0.17395393  1
  C  C2866  1  0.62482400  0.96356367  0.37395393  1
  C  C2867  1  0.62482400  0.96356367  0.57395393  1
  C  C2868  1  0.62482400  0.96356367  0.77395393  1
  C  C2869  1  0.62482400  0.96356367  0.97395393  1
  C  C2870  1  0.62482400  0.83856367  0.19895393  1
  C  C2871  1  0.62482400  0.83856367  0.39895393  1
  C  C2872  1  0.62482400  0.83856367  0.59895393  1
  C  C2873  1  0.62482400  0.83856367  0.79895393  1
  C  C2874  1  0.62482400  0.83856367  0.99895393  1
  C  C2875  1  0.62482400  0.96356367  0.19895393  1
  C  C2876  1  0.62482400  0.96356367  0.39895393  1
  C  C2877  1  0.62482400  0.96356367  0.59895393  1
  C  C2878  1  0.62482400  0.96356367  0.79895393  1
  C  C2879  1  0.62482400  0.96356367  0.99895393  1
  C  C2880  1  0.12499600  0.10937550  0.00312490  1
  C  C2881  1  0.12499600  0.10937550  0.20312490  1
  C  C2882  1  0.12499600  0.10937550  0.40312490  1
  C  C2883  1  0.12499600  0.10937550  0.60312490  1
  C  C2884  1  0.12499600  0.10937550  0.80312490  1
  C  C2885  1  0.12499600  0.23437550  0.00312490  1
  C  C2886  1  0.12499600  0.23437550  0.20312490  1
  C  C2887  1  0.12499600  0.23437550  0.40312490  1
  C  C2888  1  0.12499600  0.23437550  0.60312490  1
  C  C2889  1  0.12499600  0.23437550  0.80312490  1
  C  C2890  1  0.12499600  0.10937550  0.02812490  1
  C  C2891  1  0.12499600  0.10937550  0.22812490  1
  C  C2892  1  0.12499600  0.10937550  0.42812490  1
  C  C2893  1  0.12499600  0.10937550  0.62812490  1
  C  C2894  1  0.12499600  0.10937550  0.82812490  1
  C  C2895  1  0.12499600  0.35937550  0.00312490  1
  C  C2896  1  0.12499600  0.35937550  0.20312490  1
  C  C2897  1  0.12499600  0.35937550  0.40312490  1
  C  C2898  1  0.12499600  0.35937550  0.60312490  1
  C  C2899  1  0.12499600  0.35937550  0.80312490  1
  C  C2900  1  0.12499600  0.23437550  0.02812490  1
  C  C2901  1  0.12499600  0.23437550  0.22812490  1
  C  C2902  1  0.12499600  0.23437550  0.42812490  1
  C  C2903  1  0.12499600  0.23437550  0.62812490  1
  C  C2904  1  0.12499600  0.23437550  0.82812490  1
  C  C2905  1  0.12499600  0.10937550  0.05312490  1
  C  C2906  1  0.12499600  0.10937550  0.25312490  1
  C  C2907  1  0.12499600  0.10937550  0.45312490  1
  C  C2908  1  0.12499600  0.10937550  0.65312490  1
  C  C2909  1  0.12499600  0.10937550  0.85312490  1
  C  C2910  1  0.12499600  0.48437550  0.00312490  1
  C  C2911  1  0.12499600  0.48437550  0.20312490  1
  C  C2912  1  0.12499600  0.48437550  0.40312490  1
  C  C2913  1  0.12499600  0.48437550  0.60312490  1
  C  C2914  1  0.12499600  0.48437550  0.80312490  1
  C  C2915  1  0.12499600  0.35937550  0.02812490  1
  C  C2916  1  0.12499600  0.35937550  0.22812490  1
  C  C2917  1  0.12499600  0.35937550  0.42812490  1
  C  C2918  1  0.12499600  0.35937550  0.62812490  1
  C  C2919  1  0.12499600  0.35937550  0.82812490  1
  C  C2920  1  0.12499600  0.23437550  0.05312490  1
  C  C2921  1  0.12499600  0.23437550  0.25312490  1
  C  C2922  1  0.12499600  0.23437550  0.45312490  1
  C  C2923  1  0.12499600  0.23437550  0.65312490  1
  C  C2924  1  0.12499600  0.23437550  0.85312490  1
  C  C2925  1  0.12499600  0.10937550  0.07812490  1
  C  C2926  1  0.12499600  0.10937550  0.27812490  1
  C  C2927  1  0.12499600  0.10937550  0.47812490  1
  C  C2928  1  0.12499600  0.10937550  0.67812490  1
  C  C2929  1  0.12499600  0.10937550  0.87812490  1
  C  C2930  1  0.12499600  0.60937550  0.00312490  1
  C  C2931  1  0.12499600  0.60937550  0.20312490  1
  C  C2932  1  0.12499600  0.60937550  0.40312490  1
  C  C2933  1  0.12499600  0.60937550  0.60312490  1
  C  C2934  1  0.12499600  0.60937550  0.80312490  1
  C  C2935  1  0.12499600  0.48437550  0.02812490  1
  C  C2936  1  0.12499600  0.48437550  0.22812490  1
  C  C2937  1  0.12499600  0.48437550  0.42812490  1
  C  C2938  1  0.12499600  0.48437550  0.62812490  1
  C  C2939  1  0.12499600  0.48437550  0.82812490  1
  C  C2940  1  0.12499600  0.35937550  0.05312490  1
  C  C2941  1  0.12499600  0.35937550  0.25312490  1
  C  C2942  1  0.12499600  0.35937550  0.45312490  1
  C  C2943  1  0.12499600  0.35937550  0.65312490  1
  C  C2944  1  0.12499600  0.35937550  0.85312490  1
  C  C2945  1  0.12499600  0.23437550  0.07812490  1
  C  C2946  1  0.12499600  0.23437550  0.27812490  1
  C  C2947  1  0.12499600  0.23437550  0.47812490  1
  C  C2948  1  0.12499600  0.23437550  0.67812490  1
  C  C2949  1  0.12499600  0.23437550  0.87812490  1
  C  C2950  1  0.12499600  0.10937550  0.10312490  1
  C  C2951  1  0.12499600  0.10937550  0.30312490  1
  C  C2952  1  0.12499600  0.10937550  0.50312490  1
  C  C2953  1  0.12499600  0.10937550  0.70312490  1
  C  C2954  1  0.12499600  0.10937550  0.90312490  1
  C  C2955  1  0.12499600  0.73437550  0.00312490  1
  C  C2956  1  0.12499600  0.73437550  0.20312490  1
  C  C2957  1  0.12499600  0.73437550  0.40312490  1
  C  C2958  1  0.12499600  0.73437550  0.60312490  1
  C  C2959  1  0.12499600  0.73437550  0.80312490  1
  C  C2960  1  0.12499600  0.60937550  0.02812490  1
  C  C2961  1  0.12499600  0.60937550  0.22812490  1
  C  C2962  1  0.12499600  0.60937550  0.42812490  1
  C  C2963  1  0.12499600  0.60937550  0.62812490  1
  C  C2964  1  0.12499600  0.60937550  0.82812490  1
  C  C2965  1  0.12499600  0.48437550  0.05312490  1
  C  C2966  1  0.12499600  0.48437550  0.25312490  1
  C  C2967  1  0.12499600  0.48437550  0.45312490  1
  C  C2968  1  0.12499600  0.48437550  0.65312490  1
  C  C2969  1  0.12499600  0.48437550  0.85312490  1
  C  C2970  1  0.12499600  0.35937550  0.07812490  1
  C  C2971  1  0.12499600  0.35937550  0.27812490  1
  C  C2972  1  0.12499600  0.35937550  0.47812490  1
  C  C2973  1  0.12499600  0.35937550  0.67812490  1
  C  C2974  1  0.12499600  0.35937550  0.87812490  1
  C  C2975  1  0.12499600  0.23437550  0.10312490  1
  C  C2976  1  0.12499600  0.23437550  0.30312490  1
  C  C2977  1  0.12499600  0.23437550  0.50312490  1
  C  C2978  1  0.12499600  0.23437550  0.70312490  1
  C  C2979  1  0.12499600  0.23437550  0.90312490  1
  C  C2980  1  0.12499600  0.10937550  0.12812490  1
  C  C2981  1  0.12499600  0.10937550  0.32812490  1
  C  C2982  1  0.12499600  0.10937550  0.52812490  1
  C  C2983  1  0.12499600  0.10937550  0.72812490  1
  C  C2984  1  0.12499600  0.10937550  0.92812490  1
  C  C2985  1  0.12499600  0.85937550  0.00312490  1
  C  C2986  1  0.12499600  0.85937550  0.20312490  1
  C  C2987  1  0.12499600  0.85937550  0.40312490  1
  C  C2988  1  0.12499600  0.85937550  0.60312490  1
  C  C2989  1  0.12499600  0.85937550  0.80312490  1
  C  C2990  1  0.12499600  0.73437550  0.02812490  1
  C  C2991  1  0.12499600  0.73437550  0.22812490  1
  C  C2992  1  0.12499600  0.73437550  0.42812490  1
  C  C2993  1  0.12499600  0.73437550  0.62812490  1
  C  C2994  1  0.12499600  0.73437550  0.82812490  1
  C  C2995  1  0.12499600  0.60937550  0.05312490  1
  C  C2996  1  0.12499600  0.60937550  0.25312490  1
  C  C2997  1  0.12499600  0.60937550  0.45312490  1
  C  C2998  1  0.12499600  0.60937550  0.65312490  1
  C  C2999  1  0.12499600  0.60937550  0.85312490  1
  C  C3000  1  0.12499600  0.48437550  0.07812490  1
  C  C3001  1  0.12499600  0.48437550  0.27812490  1
  C  C3002  1  0.12499600  0.48437550  0.47812490  1
  C  C3003  1  0.12499600  0.48437550  0.67812490  1
  C  C3004  1  0.12499600  0.48437550  0.87812490  1
  C  C3005  1  0.12499600  0.35937550  0.10312490  1
  C  C3006  1  0.12499600  0.35937550  0.30312490  1
  C  C3007  1  0.12499600  0.35937550  0.50312490  1
  C  C3008  1  0.12499600  0.35937550  0.70312490  1
  C  C3009  1  0.12499600  0.35937550  0.90312490  1
  C  C3010  1  0.12499600  0.23437550  0.12812490  1
  C  C3011  1  0.12499600  0.23437550  0.32812490  1
  C  C3012  1  0.12499600  0.23437550  0.52812490  1
  C  C3013  1  0.12499600  0.23437550  0.72812490  1
  C  C3014  1  0.12499600  0.23437550  0.92812490  1
  C  C3015  1  0.12499600  0.10937550  0.15312490  1
  C  C3016  1  0.12499600  0.10937550  0.35312490  1
  C  C3017  1  0.12499600  0.10937550  0.55312490  1
  C  C3018  1  0.12499600  0.10937550  0.75312490  1
  C  C3019  1  0.12499600  0.10937550  0.95312490  1
  C  C3020  1  0.12499600  0.98437550  0.00312490  1
  C  C3021  1  0.12499600  0.98437550  0.20312490  1
  C  C3022  1  0.12499600  0.98437550  0.40312490  1
  C  C3023  1  0.12499600  0.98437550  0.60312490  1
  C  C3024  1  0.12499600  0.98437550  0.80312490  1
  C  C3025  1  0.12499600  0.85937550  0.02812490  1
  C  C3026  1  0.12499600  0.85937550  0.22812490  1
  C  C3027  1  0.12499600  0.85937550  0.42812490  1
  C  C3028  1  0.12499600  0.85937550  0.62812490  1
  C  C3029  1  0.12499600  0.85937550  0.82812490  1
  C  C3030  1  0.12499600  0.73437550  0.05312490  1
  C  C3031  1  0.12499600  0.73437550  0.25312490  1
  C  C3032  1  0.12499600  0.73437550  0.45312490  1
  C  C3033  1  0.12499600  0.73437550  0.65312490  1
  C  C3034  1  0.12499600  0.73437550  0.85312490  1
  C  C3035  1  0.12499600  0.60937550  0.07812490  1
  C  C3036  1  0.12499600  0.60937550  0.27812490  1
  C  C3037  1  0.12499600  0.60937550  0.47812490  1
  C  C3038  1  0.12499600  0.60937550  0.67812490  1
  C  C3039  1  0.12499600  0.60937550  0.87812490  1
  C  C3040  1  0.12499600  0.48437550  0.10312490  1
  C  C3041  1  0.12499600  0.48437550  0.30312490  1
  C  C3042  1  0.12499600  0.48437550  0.50312490  1
  C  C3043  1  0.12499600  0.48437550  0.70312490  1
  C  C3044  1  0.12499600  0.48437550  0.90312490  1
  C  C3045  1  0.12499600  0.35937550  0.12812490  1
  C  C3046  1  0.12499600  0.35937550  0.32812490  1
  C  C3047  1  0.12499600  0.35937550  0.52812490  1
  C  C3048  1  0.12499600  0.35937550  0.72812490  1
  C  C3049  1  0.12499600  0.35937550  0.92812490  1
  C  C3050  1  0.12499600  0.23437550  0.15312490  1
  C  C3051  1  0.12499600  0.23437550  0.35312490  1
  C  C3052  1  0.12499600  0.23437550  0.55312490  1
  C  C3053  1  0.12499600  0.23437550  0.75312490  1
  C  C3054  1  0.12499600  0.23437550  0.95312490  1
  C  C3055  1  0.12499600  0.10937550  0.17812490  1
  C  C3056  1  0.12499600  0.10937550  0.37812490  1
  C  C3057  1  0.12499600  0.10937550  0.57812490  1
  C  C3058  1  0.12499600  0.10937550  0.77812490  1
  C  C3059  1  0.12499600  0.10937550  0.97812490  1
  C  C3060  1  0.12499600  0.98437550  0.02812490  1
  C  C3061  1  0.12499600  0.98437550  0.22812490  1
  C  C3062  1  0.12499600  0.98437550  0.42812490  1
  C  C3063  1  0.12499600  0.98437550  0.62812490  1
  C  C3064  1  0.12499600  0.98437550  0.82812490  1
  C  C3065  1  0.12499600  0.85937550  0.05312490  1
  C  C3066  1  0.12499600  0.85937550  0.25312490  1
  C  C3067  1  0.12499600  0.85937550  0.45312490  1
  C  C3068  1  0.12499600  0.85937550  0.65312490  1
  C  C3069  1  0.12499600  0.85937550  0.85312490  1
  C  C3070  1  0.12499600  0.73437550  0.07812490  1
  C  C3071  1  0.12499600  0.73437550  0.27812490  1
  C  C3072  1  0.12499600  0.73437550  0.47812490  1
  C  C3073  1  0.12499600  0.73437550  0.67812490  1
  C  C3074  1  0.12499600  0.73437550  0.87812490  1
  C  C3075  1  0.12499600  0.60937550  0.10312490  1
  C  C3076  1  0.12499600  0.60937550  0.30312490  1
  C  C3077  1  0.12499600  0.60937550  0.50312490  1
  C  C3078  1  0.12499600  0.60937550  0.70312490  1
  C  C3079  1  0.12499600  0.60937550  0.90312490  1
  C  C3080  1  0.12499600  0.48437550  0.12812490  1
  C  C3081  1  0.12499600  0.48437550  0.32812490  1
  C  C3082  1  0.12499600  0.48437550  0.52812490  1
  C  C3083  1  0.12499600  0.48437550  0.72812490  1
  C  C3084  1  0.12499600  0.48437550  0.92812490  1
  C  C3085  1  0.12499600  0.35937550  0.15312490  1
  C  C3086  1  0.12499600  0.35937550  0.35312490  1
  C  C3087  1  0.12499600  0.35937550  0.55312490  1
  C  C3088  1  0.12499600  0.35937550  0.75312490  1
  C  C3089  1  0.12499600  0.35937550  0.95312490  1
  C  C3090  1  0.12499600  0.23437550  0.17812490  1
  C  C3091  1  0.12499600  0.23437550  0.37812490  1
  C  C3092  1  0.12499600  0.23437550  0.57812490  1
  C  C3093  1  0.12499600  0.23437550  0.77812490  1
  C  C3094  1  0.12499600  0.23437550  0.97812490  1
  C  C3095  1  0.12499600  0.98437550  0.05312490  1
  C  C3096  1  0.12499600  0.98437550  0.25312490  1
  C  C3097  1  0.12499600  0.98437550  0.45312490  1
  C  C3098  1  0.12499600  0.98437550  0.65312490  1
  C  C3099  1  0.12499600  0.98437550  0.85312490  1
  C  C3100  1  0.12499600  0.85937550  0.07812490  1
  C  C3101  1  0.12499600  0.85937550  0.27812490  1
  C  C3102  1  0.12499600  0.85937550  0.47812490  1
  C  C3103  1  0.12499600  0.85937550  0.67812490  1
  C  C3104  1  0.12499600  0.85937550  0.87812490  1
  C  C3105  1  0.12499600  0.73437550  0.10312490  1
  C  C3106  1  0.12499600  0.73437550  0.30312490  1
  C  C3107  1  0.12499600  0.73437550  0.50312490  1
  C  C3108  1  0.12499600  0.73437550  0.70312490  1
  C  C3109  1  0.12499600  0.73437550  0.90312490  1
  C  C3110  1  0.12499600  0.60937550  0.12812490  1
  C  C3111  1  0.12499600  0.60937550  0.32812490  1
  C  C3112  1  0.12499600  0.60937550  0.52812490  1
  C  C3113  1  0.12499600  0.60937550  0.72812490  1
  C  C3114  1  0.12499600  0.60937550  0.92812490  1
  C  C3115  1  0.12499600  0.48437550  0.15312490  1
  C  C3116  1  0.12499600  0.48437550  0.35312490  1
  C  C3117  1  0.12499600  0.48437550  0.55312490  1
  C  C3118  1  0.12499600  0.48437550  0.75312490  1
  C  C3119  1  0.12499600  0.48437550  0.95312490  1
  C  C3120  1  0.12499600  0.35937550  0.17812490  1
  C  C3121  1  0.12499600  0.35937550  0.37812490  1
  C  C3122  1  0.12499600  0.35937550  0.57812490  1
  C  C3123  1  0.12499600  0.35937550  0.77812490  1
  C  C3124  1  0.12499600  0.35937550  0.97812490  1
  C  C3125  1  0.12499600  0.98437550  0.07812490  1
  C  C3126  1  0.12499600  0.98437550  0.27812490  1
  C  C3127  1  0.12499600  0.98437550  0.47812490  1
  C  C3128  1  0.12499600  0.98437550  0.67812490  1
  C  C3129  1  0.12499600  0.98437550  0.87812490  1
  C  C3130  1  0.12499600  0.85937550  0.10312490  1
  C  C3131  1  0.12499600  0.85937550  0.30312490  1
  C  C3132  1  0.12499600  0.85937550  0.50312490  1
  C  C3133  1  0.12499600  0.85937550  0.70312490  1
  C  C3134  1  0.12499600  0.85937550  0.90312490  1
  C  C3135  1  0.12499600  0.73437550  0.12812490  1
  C  C3136  1  0.12499600  0.73437550  0.32812490  1
  C  C3137  1  0.12499600  0.73437550  0.52812490  1
  C  C3138  1  0.12499600  0.73437550  0.72812490  1
  C  C3139  1  0.12499600  0.73437550  0.92812490  1
  C  C3140  1  0.12499600  0.60937550  0.15312490  1
  C  C3141  1  0.12499600  0.60937550  0.35312490  1
  C  C3142  1  0.12499600  0.60937550  0.55312490  1
  C  C3143  1  0.12499600  0.60937550  0.75312490  1
  C  C3144  1  0.12499600  0.60937550  0.95312490  1
  C  C3145  1  0.12499600  0.48437550  0.17812490  1
  C  C3146  1  0.12499600  0.48437550  0.37812490  1
  C  C3147  1  0.12499600  0.48437550  0.57812490  1
  C  C3148  1  0.12499600  0.48437550  0.77812490  1
  C  C3149  1  0.12499600  0.48437550  0.97812490  1
  C  C3150  1  0.12499600  0.98437550  0.10312490  1
  C  C3151  1  0.12499600  0.98437550  0.30312490  1
  C  C3152  1  0.12499600  0.98437550  0.50312490  1
  C  C3153  1  0.12499600  0.98437550  0.70312490  1
  C  C3154  1  0.12499600  0.98437550  0.90312490  1
  C  C3155  1  0.12499600  0.85937550  0.12812490  1
  C  C3156  1  0.12499600  0.85937550  0.32812490  1
  C  C3157  1  0.12499600  0.85937550  0.52812490  1
  C  C3158  1  0.12499600  0.85937550  0.72812490  1
  C  C3159  1  0.12499600  0.85937550  0.92812490  1
  C  C3160  1  0.12499600  0.73437550  0.15312490  1
  C  C3161  1  0.12499600  0.73437550  0.35312490  1
  C  C3162  1  0.12499600  0.73437550  0.55312490  1
  C  C3163  1  0.12499600  0.73437550  0.75312490  1
  C  C3164  1  0.12499600  0.73437550  0.95312490  1
  C  C3165  1  0.12499600  0.60937550  0.17812490  1
  C  C3166  1  0.12499600  0.60937550  0.37812490  1
  C  C3167  1  0.12499600  0.60937550  0.57812490  1
  C  C3168  1  0.12499600  0.60937550  0.77812490  1
  C  C3169  1  0.12499600  0.60937550  0.97812490  1
  C  C3170  1  0.12499600  0.98437550  0.12812490  1
  C  C3171  1  0.12499600  0.98437550  0.32812490  1
  C  C3172  1  0.12499600  0.98437550  0.52812490  1
  C  C3173  1  0.12499600  0.98437550  0.72812490  1
  C  C3174  1  0.12499600  0.98437550  0.92812490  1
  C  C3175  1  0.12499600  0.85937550  0.15312490  1
  C  C3176  1  0.12499600  0.85937550  0.35312490  1
  C  C3177  1  0.12499600  0.85937550  0.55312490  1
  C  C3178  1  0.12499600  0.85937550  0.75312490  1
  C  C3179  1  0.12499600  0.85937550  0.95312490  1
  C  C3180  1  0.12499600  0.73437550  0.17812490  1
  C  C3181  1  0.12499600  0.73437550  0.37812490  1
  C  C3182  1  0.12499600  0.73437550  0.57812490  1
  C  C3183  1  0.12499600  0.73437550  0.77812490  1
  C  C3184  1  0.12499600  0.73437550  0.97812490  1
  C  C3185  1  0.12499600  0.98437550  0.15312490  1
  C  C3186  1  0.12499600  0.98437550  0.35312490  1
  C  C3187  1  0.12499600  0.98437550  0.55312490  1
  C  C3188  1  0.12499600  0.98437550  0.75312490  1
  C  C3189  1  0.12499600  0.98437550  0.95312490  1
  C  C3190  1  0.12499600  0.85937550  0.17812490  1
  C  C3191  1  0.12499600  0.85937550  0.37812490  1
  C  C3192  1  0.12499600  0.85937550  0.57812490  1
  C  C3193  1  0.12499600  0.85937550  0.77812490  1
  C  C3194  1  0.12499600  0.85937550  0.97812490  1
  C  C3195  1  0.12499600  0.98437550  0.17812490  1
  C  C3196  1  0.12499600  0.98437550  0.37812490  1
  C  C3197  1  0.12499600  0.98437550  0.57812490  1
  C  C3198  1  0.12499600  0.98437550  0.77812490  1
  C  C3199  1  0.12499600  0.98437550  0.97812490  1
  Si  Si3200  1  0.80008200  0.02498975  0.02000205  1
  Si  Si3201  1  0.80008200  0.02498975  0.22000205  1
  Si  Si3202  1  0.80008200  0.02498975  0.42000205  1
  Si  Si3203  1  0.80008200  0.02498975  0.62000205  1
  Si  Si3204  1  0.80008200  0.02498975  0.82000205  1
  Si  Si3205  1  0.80008200  0.14998975  0.02000205  1
  Si  Si3206  1  0.80008200  0.14998975  0.22000205  1
  Si  Si3207  1  0.80008200  0.14998975  0.42000205  1
  Si  Si3208  1  0.80008200  0.14998975  0.62000205  1
  Si  Si3209  1  0.80008200  0.14998975  0.82000205  1
  Si  Si3210  1  0.80008200  0.02498975  0.04500205  1
  Si  Si3211  1  0.80008200  0.02498975  0.24500205  1
  Si  Si3212  1  0.80008200  0.02498975  0.44500205  1
  Si  Si3213  1  0.80008200  0.02498975  0.64500205  1
  Si  Si3214  1  0.80008200  0.02498975  0.84500205  1
  Si  Si3215  1  0.80008200  0.27498975  0.02000205  1
  Si  Si3216  1  0.80008200  0.27498975  0.22000205  1
  Si  Si3217  1  0.80008200  0.27498975  0.42000205  1
  Si  Si3218  1  0.80008200  0.27498975  0.62000205  1
  Si  Si3219  1  0.80008200  0.27498975  0.82000205  1
  Si  Si3220  1  0.80008200  0.14998975  0.04500205  1
  Si  Si3221  1  0.80008200  0.14998975  0.24500205  1
  Si  Si3222  1  0.80008200  0.14998975  0.44500205  1
  Si  Si3223  1  0.80008200  0.14998975  0.64500205  1
  Si  Si3224  1  0.80008200  0.14998975  0.84500205  1
  Si  Si3225  1  0.80008200  0.02498975  0.07000205  1
  Si  Si3226  1  0.80008200  0.02498975  0.27000205  1
  Si  Si3227  1  0.80008200  0.02498975  0.47000205  1
  Si  Si3228  1  0.80008200  0.02498975  0.67000205  1
  Si  Si3229  1  0.80008200  0.02498975  0.87000205  1
  Si  Si3230  1  0.80008200  0.39998975  0.02000205  1
  Si  Si3231  1  0.80008200  0.39998975  0.22000205  1
  Si  Si3232  1  0.80008200  0.39998975  0.42000205  1
  Si  Si3233  1  0.80008200  0.39998975  0.62000205  1
  Si  Si3234  1  0.80008200  0.39998975  0.82000205  1
  Si  Si3235  1  0.80008200  0.27498975  0.04500205  1
  Si  Si3236  1  0.80008200  0.27498975  0.24500205  1
  Si  Si3237  1  0.80008200  0.27498975  0.44500205  1
  Si  Si3238  1  0.80008200  0.27498975  0.64500205  1
  Si  Si3239  1  0.80008200  0.27498975  0.84500205  1
  Si  Si3240  1  0.80008200  0.14998975  0.07000205  1
  Si  Si3241  1  0.80008200  0.14998975  0.27000205  1
  Si  Si3242  1  0.80008200  0.14998975  0.47000205  1
  Si  Si3243  1  0.80008200  0.14998975  0.67000205  1
  Si  Si3244  1  0.80008200  0.14998975  0.87000205  1
  Si  Si3245  1  0.80008200  0.02498975  0.09500205  1
  Si  Si3246  1  0.80008200  0.02498975  0.29500205  1
  Si  Si3247  1  0.80008200  0.02498975  0.49500205  1
  Si  Si3248  1  0.80008200  0.02498975  0.69500205  1
  Si  Si3249  1  0.80008200  0.02498975  0.89500205  1
  Si  Si3250  1  0.80008200  0.52498975  0.02000205  1
  Si  Si3251  1  0.80008200  0.52498975  0.22000205  1
  Si  Si3252  1  0.80008200  0.52498975  0.42000205  1
  Si  Si3253  1  0.80008200  0.52498975  0.62000205  1
  Si  Si3254  1  0.80008200  0.52498975  0.82000205  1
  Si  Si3255  1  0.80008200  0.39998975  0.04500205  1
  Si  Si3256  1  0.80008200  0.39998975  0.24500205  1
  Si  Si3257  1  0.80008200  0.39998975  0.44500205  1
  Si  Si3258  1  0.80008200  0.39998975  0.64500205  1
  Si  Si3259  1  0.80008200  0.39998975  0.84500205  1
  Si  Si3260  1  0.80008200  0.27498975  0.07000205  1
  Si  Si3261  1  0.80008200  0.27498975  0.27000205  1
  Si  Si3262  1  0.80008200  0.27498975  0.47000205  1
  Si  Si3263  1  0.80008200  0.27498975  0.67000205  1
  Si  Si3264  1  0.80008200  0.27498975  0.87000205  1
  Si  Si3265  1  0.80008200  0.14998975  0.09500205  1
  Si  Si3266  1  0.80008200  0.14998975  0.29500205  1
  Si  Si3267  1  0.80008200  0.14998975  0.49500205  1
  Si  Si3268  1  0.80008200  0.14998975  0.69500205  1
  Si  Si3269  1  0.80008200  0.14998975  0.89500205  1
  Si  Si3270  1  0.80008200  0.02498975  0.12000205  1
  Si  Si3271  1  0.80008200  0.02498975  0.32000205  1
  Si  Si3272  1  0.80008200  0.02498975  0.52000205  1
  Si  Si3273  1  0.80008200  0.02498975  0.72000205  1
  Si  Si3274  1  0.80008200  0.02498975  0.92000205  1
  Si  Si3275  1  0.80008200  0.64998975  0.02000205  1
  Si  Si3276  1  0.80008200  0.64998975  0.22000205  1
  Si  Si3277  1  0.80008200  0.64998975  0.42000205  1
  Si  Si3278  1  0.80008200  0.64998975  0.62000205  1
  Si  Si3279  1  0.80008200  0.64998975  0.82000205  1
  Si  Si3280  1  0.80008200  0.52498975  0.04500205  1
  Si  Si3281  1  0.80008200  0.52498975  0.24500205  1
  Si  Si3282  1  0.80008200  0.52498975  0.44500205  1
  Si  Si3283  1  0.80008200  0.52498975  0.64500205  1
  Si  Si3284  1  0.80008200  0.52498975  0.84500205  1
  Si  Si3285  1  0.80008200  0.39998975  0.07000205  1
  Si  Si3286  1  0.80008200  0.39998975  0.27000205  1
  Si  Si3287  1  0.80008200  0.39998975  0.47000205  1
  Si  Si3288  1  0.80008200  0.39998975  0.67000205  1
  Si  Si3289  1  0.80008200  0.39998975  0.87000205  1
  Si  Si3290  1  0.80008200  0.27498975  0.09500205  1
  Si  Si3291  1  0.80008200  0.27498975  0.29500205  1
  Si  Si3292  1  0.80008200  0.27498975  0.49500205  1
  Si  Si3293  1  0.80008200  0.27498975  0.69500205  1
  Si  Si3294  1  0.80008200  0.27498975  0.89500205  1
  Si  Si3295  1  0.80008200  0.14998975  0.12000205  1
  Si  Si3296  1  0.80008200  0.14998975  0.32000205  1
  Si  Si3297  1  0.80008200  0.14998975  0.52000205  1
  Si  Si3298  1  0.80008200  0.14998975  0.72000205  1
  Si  Si3299  1  0.80008200  0.14998975  0.92000205  1
  Si  Si3300  1  0.80008200  0.02498975  0.14500205  1
  Si  Si3301  1  0.80008200  0.02498975  0.34500205  1
  Si  Si3302  1  0.80008200  0.02498975  0.54500205  1
  Si  Si3303  1  0.80008200  0.02498975  0.74500205  1
  Si  Si3304  1  0.80008200  0.02498975  0.94500205  1
  Si  Si3305  1  0.80008200  0.77498975  0.02000205  1
  Si  Si3306  1  0.80008200  0.77498975  0.22000205  1
  Si  Si3307  1  0.80008200  0.77498975  0.42000205  1
  Si  Si3308  1  0.80008200  0.77498975  0.62000205  1
  Si  Si3309  1  0.80008200  0.77498975  0.82000205  1
  Si  Si3310  1  0.80008200  0.64998975  0.04500205  1
  Si  Si3311  1  0.80008200  0.64998975  0.24500205  1
  Si  Si3312  1  0.80008200  0.64998975  0.44500205  1
  Si  Si3313  1  0.80008200  0.64998975  0.64500205  1
  Si  Si3314  1  0.80008200  0.64998975  0.84500205  1
  Si  Si3315  1  0.80008200  0.52498975  0.07000205  1
  Si  Si3316  1  0.80008200  0.52498975  0.27000205  1
  Si  Si3317  1  0.80008200  0.52498975  0.47000205  1
  Si  Si3318  1  0.80008200  0.52498975  0.67000205  1
  Si  Si3319  1  0.80008200  0.52498975  0.87000205  1
  Si  Si3320  1  0.80008200  0.39998975  0.09500205  1
  Si  Si3321  1  0.80008200  0.39998975  0.29500205  1
  Si  Si3322  1  0.80008200  0.39998975  0.49500205  1
  Si  Si3323  1  0.80008200  0.39998975  0.69500205  1
  Si  Si3324  1  0.80008200  0.39998975  0.89500205  1
  Si  Si3325  1  0.80008200  0.27498975  0.12000205  1
  Si  Si3326  1  0.80008200  0.27498975  0.32000205  1
  Si  Si3327  1  0.80008200  0.27498975  0.52000205  1
  Si  Si3328  1  0.80008200  0.27498975  0.72000205  1
  Si  Si3329  1  0.80008200  0.27498975  0.92000205  1
  Si  Si3330  1  0.80008200  0.14998975  0.14500205  1
  Si  Si3331  1  0.80008200  0.14998975  0.34500205  1
  Si  Si3332  1  0.80008200  0.14998975  0.54500205  1
  Si  Si3333  1  0.80008200  0.14998975  0.74500205  1
  Si  Si3334  1  0.80008200  0.14998975  0.94500205  1
  Si  Si3335  1  0.80008200  0.02498975  0.17000205  1
  Si  Si3336  1  0.80008200  0.02498975  0.37000205  1
  Si  Si3337  1  0.80008200  0.02498975  0.57000205  1
  Si  Si3338  1  0.80008200  0.02498975  0.77000205  1
  Si  Si3339  1  0.80008200  0.02498975  0.97000205  1
  Si  Si3340  1  0.80008200  0.89998975  0.02000205  1
  Si  Si3341  1  0.80008200  0.89998975  0.22000205  1
  Si  Si3342  1  0.80008200  0.89998975  0.42000205  1
  Si  Si3343  1  0.80008200  0.89998975  0.62000205  1
  Si  Si3344  1  0.80008200  0.89998975  0.82000205  1
  Si  Si3345  1  0.80008200  0.77498975  0.04500205  1
  Si  Si3346  1  0.80008200  0.77498975  0.24500205  1
  Si  Si3347  1  0.80008200  0.77498975  0.44500205  1
  Si  Si3348  1  0.80008200  0.77498975  0.64500205  1
  Si  Si3349  1  0.80008200  0.77498975  0.84500205  1
  Si  Si3350  1  0.80008200  0.64998975  0.07000205  1
  Si  Si3351  1  0.80008200  0.64998975  0.27000205  1
  Si  Si3352  1  0.80008200  0.64998975  0.47000205  1
  Si  Si3353  1  0.80008200  0.64998975  0.67000205  1
  Si  Si3354  1  0.80008200  0.64998975  0.87000205  1
  Si  Si3355  1  0.80008200  0.52498975  0.09500205  1
  Si  Si3356  1  0.80008200  0.52498975  0.29500205  1
  Si  Si3357  1  0.80008200  0.52498975  0.49500205  1
  Si  Si3358  1  0.80008200  0.52498975  0.69500205  1
  Si  Si3359  1  0.80008200  0.52498975  0.89500205  1
  Si  Si3360  1  0.80008200  0.39998975  0.12000205  1
  Si  Si3361  1  0.80008200  0.39998975  0.32000205  1
  Si  Si3362  1  0.80008200  0.39998975  0.52000205  1
  Si  Si3363  1  0.80008200  0.39998975  0.72000205  1
  Si  Si3364  1  0.80008200  0.39998975  0.92000205  1
  Si  Si3365  1  0.80008200  0.27498975  0.14500205  1
  Si  Si3366  1  0.80008200  0.27498975  0.34500205  1
  Si  Si3367  1  0.80008200  0.27498975  0.54500205  1
  Si  Si3368  1  0.80008200  0.27498975  0.74500205  1
  Si  Si3369  1  0.80008200  0.27498975  0.94500205  1
  Si  Si3370  1  0.80008200  0.14998975  0.17000205  1
  Si  Si3371  1  0.80008200  0.14998975  0.37000205  1
  Si  Si3372  1  0.80008200  0.14998975  0.57000205  1
  Si  Si3373  1  0.80008200  0.14998975  0.77000205  1
  Si  Si3374  1  0.80008200  0.14998975  0.97000205  1
  Si  Si3375  1  0.80008200  0.02498975  0.19500205  1
  Si  Si3376  1  0.80008200  0.02498975  0.39500205  1
  Si  Si3377  1  0.80008200  0.02498975  0.59500205  1
  Si  Si3378  1  0.80008200  0.02498975  0.79500205  1
  Si  Si3379  1  0.80008200  0.02498975  0.99500205  1
  Si  Si3380  1  0.80008200  0.89998975  0.04500205  1
  Si  Si3381  1  0.80008200  0.89998975  0.24500205  1
  Si  Si3382  1  0.80008200  0.89998975  0.44500205  1
  Si  Si3383  1  0.80008200  0.89998975  0.64500205  1
  Si  Si3384  1  0.80008200  0.89998975  0.84500205  1
  Si  Si3385  1  0.80008200  0.77498975  0.07000205  1
  Si  Si3386  1  0.80008200  0.77498975  0.27000205  1
  Si  Si3387  1  0.80008200  0.77498975  0.47000205  1
  Si  Si3388  1  0.80008200  0.77498975  0.67000205  1
  Si  Si3389  1  0.80008200  0.77498975  0.87000205  1
  Si  Si3390  1  0.80008200  0.64998975  0.09500205  1
  Si  Si3391  1  0.80008200  0.64998975  0.29500205  1
  Si  Si3392  1  0.80008200  0.64998975  0.49500205  1
  Si  Si3393  1  0.80008200  0.64998975  0.69500205  1
  Si  Si3394  1  0.80008200  0.64998975  0.89500205  1
  Si  Si3395  1  0.80008200  0.52498975  0.12000205  1
  Si  Si3396  1  0.80008200  0.52498975  0.32000205  1
  Si  Si3397  1  0.80008200  0.52498975  0.52000205  1
  Si  Si3398  1  0.80008200  0.52498975  0.72000205  1
  Si  Si3399  1  0.80008200  0.52498975  0.92000205  1
  Si  Si3400  1  0.80008200  0.39998975  0.14500205  1
  Si  Si3401  1  0.80008200  0.39998975  0.34500205  1
  Si  Si3402  1  0.80008200  0.39998975  0.54500205  1
  Si  Si3403  1  0.80008200  0.39998975  0.74500205  1
  Si  Si3404  1  0.80008200  0.39998975  0.94500205  1
  Si  Si3405  1  0.80008200  0.27498975  0.17000205  1
  Si  Si3406  1  0.80008200  0.27498975  0.37000205  1
  Si  Si3407  1  0.80008200  0.27498975  0.57000205  1
  Si  Si3408  1  0.80008200  0.27498975  0.77000205  1
  Si  Si3409  1  0.80008200  0.27498975  0.97000205  1
  Si  Si3410  1  0.80008200  0.14998975  0.19500205  1
  Si  Si3411  1  0.80008200  0.14998975  0.39500205  1
  Si  Si3412  1  0.80008200  0.14998975  0.59500205  1
  Si  Si3413  1  0.80008200  0.14998975  0.79500205  1
  Si  Si3414  1  0.80008200  0.14998975  0.99500205  1
  Si  Si3415  1  0.80008200  0.89998975  0.07000205  1
  Si  Si3416  1  0.80008200  0.89998975  0.27000205  1
  Si  Si3417  1  0.80008200  0.89998975  0.47000205  1
  Si  Si3418  1  0.80008200  0.89998975  0.67000205  1
  Si  Si3419  1  0.80008200  0.89998975  0.87000205  1
  Si  Si3420  1  0.80008200  0.77498975  0.09500205  1
  Si  Si3421  1  0.80008200  0.77498975  0.29500205  1
  Si  Si3422  1  0.80008200  0.77498975  0.49500205  1
  Si  Si3423  1  0.80008200  0.77498975  0.69500205  1
  Si  Si3424  1  0.80008200  0.77498975  0.89500205  1
  Si  Si3425  1  0.80008200  0.64998975  0.12000205  1
  Si  Si3426  1  0.80008200  0.64998975  0.32000205  1
  Si  Si3427  1  0.80008200  0.64998975  0.52000205  1
  Si  Si3428  1  0.80008200  0.64998975  0.72000205  1
  Si  Si3429  1  0.80008200  0.64998975  0.92000205  1
  Si  Si3430  1  0.80008200  0.52498975  0.14500205  1
  Si  Si3431  1  0.80008200  0.52498975  0.34500205  1
  Si  Si3432  1  0.80008200  0.52498975  0.54500205  1
  Si  Si3433  1  0.80008200  0.52498975  0.74500205  1
  Si  Si3434  1  0.80008200  0.52498975  0.94500205  1
  Si  Si3435  1  0.80008200  0.39998975  0.17000205  1
  Si  Si3436  1  0.80008200  0.39998975  0.37000205  1
  Si  Si3437  1  0.80008200  0.39998975  0.57000205  1
  Si  Si3438  1  0.80008200  0.39998975  0.77000205  1
  Si  Si3439  1  0.80008200  0.39998975  0.97000205  1
  Si  Si3440  1  0.80008200  0.27498975  0.19500205  1
  Si  Si3441  1  0.80008200  0.27498975  0.39500205  1
  Si  Si3442  1  0.80008200  0.27498975  0.59500205  1
  Si  Si3443  1  0.80008200  0.27498975  0.79500205  1
  Si  Si3444  1  0.80008200  0.27498975  0.99500205  1
  Si  Si3445  1  0.80008200  0.89998975  0.09500205  1
  Si  Si3446  1  0.80008200  0.89998975  0.29500205  1
  Si  Si3447  1  0.80008200  0.89998975  0.49500205  1
  Si  Si3448  1  0.80008200  0.89998975  0.69500205  1
  Si  Si3449  1  0.80008200  0.89998975  0.89500205  1
  Si  Si3450  1  0.80008200  0.77498975  0.12000205  1
  Si  Si3451  1  0.80008200  0.77498975  0.32000205  1
  Si  Si3452  1  0.80008200  0.77498975  0.52000205  1
  Si  Si3453  1  0.80008200  0.77498975  0.72000205  1
  Si  Si3454  1  0.80008200  0.77498975  0.92000205  1
  Si  Si3455  1  0.80008200  0.64998975  0.14500205  1
  Si  Si3456  1  0.80008200  0.64998975  0.34500205  1
  Si  Si3457  1  0.80008200  0.64998975  0.54500205  1
  Si  Si3458  1  0.80008200  0.64998975  0.74500205  1
  Si  Si3459  1  0.80008200  0.64998975  0.94500205  1
  Si  Si3460  1  0.80008200  0.52498975  0.17000205  1
  Si  Si3461  1  0.80008200  0.52498975  0.37000205  1
  Si  Si3462  1  0.80008200  0.52498975  0.57000205  1
  Si  Si3463  1  0.80008200  0.52498975  0.77000205  1
  Si  Si3464  1  0.80008200  0.52498975  0.97000205  1
  Si  Si3465  1  0.80008200  0.39998975  0.19500205  1
  Si  Si3466  1  0.80008200  0.39998975  0.39500205  1
  Si  Si3467  1  0.80008200  0.39998975  0.59500205  1
  Si  Si3468  1  0.80008200  0.39998975  0.79500205  1
  Si  Si3469  1  0.80008200  0.39998975  0.99500205  1
  Si  Si3470  1  0.80008200  0.89998975  0.12000205  1
  Si  Si3471  1  0.80008200  0.89998975  0.32000205  1
  Si  Si3472  1  0.80008200  0.89998975  0.52000205  1
  Si  Si3473  1  0.80008200  0.89998975  0.72000205  1
  Si  Si3474  1  0.80008200  0.89998975  0.92000205  1
  Si  Si3475  1  0.80008200  0.77498975  0.14500205  1
  Si  Si3476  1  0.80008200  0.77498975  0.34500205  1
  Si  Si3477  1  0.80008200  0.77498975  0.54500205  1
  Si  Si3478  1  0.80008200  0.77498975  0.74500205  1
  Si  Si3479  1  0.80008200  0.77498975  0.94500205  1
  Si  Si3480  1  0.80008200  0.64998975  0.17000205  1
  Si  Si3481  1  0.80008200  0.64998975  0.37000205  1
  Si  Si3482  1  0.80008200  0.64998975  0.57000205  1
  Si  Si3483  1  0.80008200  0.64998975  0.77000205  1
  Si  Si3484  1  0.80008200  0.64998975  0.97000205  1
  Si  Si3485  1  0.80008200  0.52498975  0.19500205  1
  Si  Si3486  1  0.80008200  0.52498975  0.39500205  1
  Si  Si3487  1  0.80008200  0.52498975  0.59500205  1
  Si  Si3488  1  0.80008200  0.52498975  0.79500205  1
  Si  Si3489  1  0.80008200  0.52498975  0.99500205  1
  Si  Si3490  1  0.80008200  0.89998975  0.14500205  1
  Si  Si3491  1  0.80008200  0.89998975  0.34500205  1
  Si  Si3492  1  0.80008200  0.89998975  0.54500205  1
  Si  Si3493  1  0.80008200  0.89998975  0.74500205  1
  Si  Si3494  1  0.80008200  0.89998975  0.94500205  1
  Si  Si3495  1  0.80008200  0.77498975  0.17000205  1
  Si  Si3496  1  0.80008200  0.77498975  0.37000205  1
  Si  Si3497  1  0.80008200  0.77498975  0.57000205  1
  Si  Si3498  1  0.80008200  0.77498975  0.77000205  1
  Si  Si3499  1  0.80008200  0.77498975  0.97000205  1
  Si  Si3500  1  0.80008200  0.64998975  0.19500205  1
  Si  Si3501  1  0.80008200  0.64998975  0.39500205  1
  Si  Si3502  1  0.80008200  0.64998975  0.59500205  1
  Si  Si3503  1  0.80008200  0.64998975  0.79500205  1
  Si  Si3504  1  0.80008200  0.64998975  0.99500205  1
  Si  Si3505  1  0.80008200  0.89998975  0.17000205  1
  Si  Si3506  1  0.80008200  0.89998975  0.37000205  1
  Si  Si3507  1  0.80008200  0.89998975  0.57000205  1
  Si  Si3508  1  0.80008200  0.89998975  0.77000205  1
  Si  Si3509  1  0.80008200  0.89998975  0.97000205  1
  Si  Si3510  1  0.80008200  0.77498975  0.19500205  1
  Si  Si3511  1  0.80008200  0.77498975  0.39500205  1
  Si  Si3512  1  0.80008200  0.77498975  0.59500205  1
  Si  Si3513  1  0.80008200  0.77498975  0.79500205  1
  Si  Si3514  1  0.80008200  0.77498975  0.99500205  1
  Si  Si3515  1  0.80008200  0.89998975  0.19500205  1
  Si  Si3516  1  0.80008200  0.89998975  0.39500205  1
  Si  Si3517  1  0.80008200  0.89998975  0.59500205  1
  Si  Si3518  1  0.80008200  0.89998975  0.79500205  1
  Si  Si3519  1  0.80008200  0.89998975  0.99500205  1
  Si  Si3520  1  0.60004600  0.04999425  0.01500115  1
  Si  Si3521  1  0.60004600  0.04999425  0.21500115  1
  Si  Si3522  1  0.60004600  0.04999425  0.41500115  1
  Si  Si3523  1  0.60004600  0.04999425  0.61500115  1
  Si  Si3524  1  0.60004600  0.04999425  0.81500115  1
  Si  Si3525  1  0.60004600  0.17499425  0.01500115  1
  Si  Si3526  1  0.60004600  0.17499425  0.21500115  1
  Si  Si3527  1  0.60004600  0.17499425  0.41500115  1
  Si  Si3528  1  0.60004600  0.17499425  0.61500115  1
  Si  Si3529  1  0.60004600  0.17499425  0.81500115  1
  Si  Si3530  1  0.60004600  0.04999425  0.04000115  1
  Si  Si3531  1  0.60004600  0.04999425  0.24000115  1
  Si  Si3532  1  0.60004600  0.04999425  0.44000115  1
  Si  Si3533  1  0.60004600  0.04999425  0.64000115  1
  Si  Si3534  1  0.60004600  0.04999425  0.84000115  1
  Si  Si3535  1  0.60004600  0.29999425  0.01500115  1
  Si  Si3536  1  0.60004600  0.29999425  0.21500115  1
  Si  Si3537  1  0.60004600  0.29999425  0.41500115  1
  Si  Si3538  1  0.60004600  0.29999425  0.61500115  1
  Si  Si3539  1  0.60004600  0.29999425  0.81500115  1
  Si  Si3540  1  0.60004600  0.17499425  0.04000115  1
  Si  Si3541  1  0.60004600  0.17499425  0.24000115  1
  Si  Si3542  1  0.60004600  0.17499425  0.44000115  1
  Si  Si3543  1  0.60004600  0.17499425  0.64000115  1
  Si  Si3544  1  0.60004600  0.17499425  0.84000115  1
  Si  Si3545  1  0.60004600  0.04999425  0.06500115  1
  Si  Si3546  1  0.60004600  0.04999425  0.26500115  1
  Si  Si3547  1  0.60004600  0.04999425  0.46500115  1
  Si  Si3548  1  0.60004600  0.04999425  0.66500115  1
  Si  Si3549  1  0.60004600  0.04999425  0.86500115  1
  Si  Si3550  1  0.60004600  0.42499425  0.01500115  1
  Si  Si3551  1  0.60004600  0.42499425  0.21500115  1
  Si  Si3552  1  0.60004600  0.42499425  0.41500115  1
  Si  Si3553  1  0.60004600  0.42499425  0.61500115  1
  Si  Si3554  1  0.60004600  0.42499425  0.81500115  1
  Si  Si3555  1  0.60004600  0.29999425  0.04000115  1
  Si  Si3556  1  0.60004600  0.29999425  0.24000115  1
  Si  Si3557  1  0.60004600  0.29999425  0.44000115  1
  Si  Si3558  1  0.60004600  0.29999425  0.64000115  1
  Si  Si3559  1  0.60004600  0.29999425  0.84000115  1
  Si  Si3560  1  0.60004600  0.17499425  0.06500115  1
  Si  Si3561  1  0.60004600  0.17499425  0.26500115  1
  Si  Si3562  1  0.60004600  0.17499425  0.46500115  1
  Si  Si3563  1  0.60004600  0.17499425  0.66500115  1
  Si  Si3564  1  0.60004600  0.17499425  0.86500115  1
  Si  Si3565  1  0.60004600  0.04999425  0.09000115  1
  Si  Si3566  1  0.60004600  0.04999425  0.29000115  1
  Si  Si3567  1  0.60004600  0.04999425  0.49000115  1
  Si  Si3568  1  0.60004600  0.04999425  0.69000115  1
  Si  Si3569  1  0.60004600  0.04999425  0.89000115  1
  Si  Si3570  1  0.60004600  0.54999425  0.01500115  1
  Si  Si3571  1  0.60004600  0.54999425  0.21500115  1
  Si  Si3572  1  0.60004600  0.54999425  0.41500115  1
  Si  Si3573  1  0.60004600  0.54999425  0.61500115  1
  Si  Si3574  1  0.60004600  0.54999425  0.81500115  1
  Si  Si3575  1  0.60004600  0.42499425  0.04000115  1
  Si  Si3576  1  0.60004600  0.42499425  0.24000115  1
  Si  Si3577  1  0.60004600  0.42499425  0.44000115  1
  Si  Si3578  1  0.60004600  0.42499425  0.64000115  1
  Si  Si3579  1  0.60004600  0.42499425  0.84000115  1
  Si  Si3580  1  0.60004600  0.29999425  0.06500115  1
  Si  Si3581  1  0.60004600  0.29999425  0.26500115  1
  Si  Si3582  1  0.60004600  0.29999425  0.46500115  1
  Si  Si3583  1  0.60004600  0.29999425  0.66500115  1
  Si  Si3584  1  0.60004600  0.29999425  0.86500115  1
  Si  Si3585  1  0.60004600  0.17499425  0.09000115  1
  Si  Si3586  1  0.60004600  0.17499425  0.29000115  1
  Si  Si3587  1  0.60004600  0.17499425  0.49000115  1
  Si  Si3588  1  0.60004600  0.17499425  0.69000115  1
  Si  Si3589  1  0.60004600  0.17499425  0.89000115  1
  Si  Si3590  1  0.60004600  0.04999425  0.11500115  1
  Si  Si3591  1  0.60004600  0.04999425  0.31500115  1
  Si  Si3592  1  0.60004600  0.04999425  0.51500115  1
  Si  Si3593  1  0.60004600  0.04999425  0.71500115  1
  Si  Si3594  1  0.60004600  0.04999425  0.91500115  1
  Si  Si3595  1  0.60004600  0.67499425  0.01500115  1
  Si  Si3596  1  0.60004600  0.67499425  0.21500115  1
  Si  Si3597  1  0.60004600  0.67499425  0.41500115  1
  Si  Si3598  1  0.60004600  0.67499425  0.61500115  1
  Si  Si3599  1  0.60004600  0.67499425  0.81500115  1
  Si  Si3600  1  0.60004600  0.54999425  0.04000115  1
  Si  Si3601  1  0.60004600  0.54999425  0.24000115  1
  Si  Si3602  1  0.60004600  0.54999425  0.44000115  1
  Si  Si3603  1  0.60004600  0.54999425  0.64000115  1
  Si  Si3604  1  0.60004600  0.54999425  0.84000115  1
  Si  Si3605  1  0.60004600  0.42499425  0.06500115  1
  Si  Si3606  1  0.60004600  0.42499425  0.26500115  1
  Si  Si3607  1  0.60004600  0.42499425  0.46500115  1
  Si  Si3608  1  0.60004600  0.42499425  0.66500115  1
  Si  Si3609  1  0.60004600  0.42499425  0.86500115  1
  Si  Si3610  1  0.60004600  0.29999425  0.09000115  1
  Si  Si3611  1  0.60004600  0.29999425  0.29000115  1
  Si  Si3612  1  0.60004600  0.29999425  0.49000115  1
  Si  Si3613  1  0.60004600  0.29999425  0.69000115  1
  Si  Si3614  1  0.60004600  0.29999425  0.89000115  1
  Si  Si3615  1  0.60004600  0.17499425  0.11500115  1
  Si  Si3616  1  0.60004600  0.17499425  0.31500115  1
  Si  Si3617  1  0.60004600  0.17499425  0.51500115  1
  Si  Si3618  1  0.60004600  0.17499425  0.71500115  1
  Si  Si3619  1  0.60004600  0.17499425  0.91500115  1
  Si  Si3620  1  0.60004600  0.04999425  0.14000115  1
  Si  Si3621  1  0.60004600  0.04999425  0.34000115  1
  Si  Si3622  1  0.60004600  0.04999425  0.54000115  1
  Si  Si3623  1  0.60004600  0.04999425  0.74000115  1
  Si  Si3624  1  0.60004600  0.04999425  0.94000115  1
  Si  Si3625  1  0.60004600  0.79999425  0.01500115  1
  Si  Si3626  1  0.60004600  0.79999425  0.21500115  1
  Si  Si3627  1  0.60004600  0.79999425  0.41500115  1
  Si  Si3628  1  0.60004600  0.79999425  0.61500115  1
  Si  Si3629  1  0.60004600  0.79999425  0.81500115  1
  Si  Si3630  1  0.60004600  0.67499425  0.04000115  1
  Si  Si3631  1  0.60004600  0.67499425  0.24000115  1
  Si  Si3632  1  0.60004600  0.67499425  0.44000115  1
  Si  Si3633  1  0.60004600  0.67499425  0.64000115  1
  Si  Si3634  1  0.60004600  0.67499425  0.84000115  1
  Si  Si3635  1  0.60004600  0.54999425  0.06500115  1
  Si  Si3636  1  0.60004600  0.54999425  0.26500115  1
  Si  Si3637  1  0.60004600  0.54999425  0.46500115  1
  Si  Si3638  1  0.60004600  0.54999425  0.66500115  1
  Si  Si3639  1  0.60004600  0.54999425  0.86500115  1
  Si  Si3640  1  0.60004600  0.42499425  0.09000115  1
  Si  Si3641  1  0.60004600  0.42499425  0.29000115  1
  Si  Si3642  1  0.60004600  0.42499425  0.49000115  1
  Si  Si3643  1  0.60004600  0.42499425  0.69000115  1
  Si  Si3644  1  0.60004600  0.42499425  0.89000115  1
  Si  Si3645  1  0.60004600  0.29999425  0.11500115  1
  Si  Si3646  1  0.60004600  0.29999425  0.31500115  1
  Si  Si3647  1  0.60004600  0.29999425  0.51500115  1
  Si  Si3648  1  0.60004600  0.29999425  0.71500115  1
  Si  Si3649  1  0.60004600  0.29999425  0.91500115  1
  Si  Si3650  1  0.60004600  0.17499425  0.14000115  1
  Si  Si3651  1  0.60004600  0.17499425  0.34000115  1
  Si  Si3652  1  0.60004600  0.17499425  0.54000115  1
  Si  Si3653  1  0.60004600  0.17499425  0.74000115  1
  Si  Si3654  1  0.60004600  0.17499425  0.94000115  1
  Si  Si3655  1  0.60004600  0.04999425  0.16500115  1
  Si  Si3656  1  0.60004600  0.04999425  0.36500115  1
  Si  Si3657  1  0.60004600  0.04999425  0.56500115  1
  Si  Si3658  1  0.60004600  0.04999425  0.76500115  1
  Si  Si3659  1  0.60004600  0.04999425  0.96500115  1
  Si  Si3660  1  0.60004600  0.92499425  0.01500115  1
  Si  Si3661  1  0.60004600  0.92499425  0.21500115  1
  Si  Si3662  1  0.60004600  0.92499425  0.41500115  1
  Si  Si3663  1  0.60004600  0.92499425  0.61500115  1
  Si  Si3664  1  0.60004600  0.92499425  0.81500115  1
  Si  Si3665  1  0.60004600  0.79999425  0.04000115  1
  Si  Si3666  1  0.60004600  0.79999425  0.24000115  1
  Si  Si3667  1  0.60004600  0.79999425  0.44000115  1
  Si  Si3668  1  0.60004600  0.79999425  0.64000115  1
  Si  Si3669  1  0.60004600  0.79999425  0.84000115  1
  Si  Si3670  1  0.60004600  0.67499425  0.06500115  1
  Si  Si3671  1  0.60004600  0.67499425  0.26500115  1
  Si  Si3672  1  0.60004600  0.67499425  0.46500115  1
  Si  Si3673  1  0.60004600  0.67499425  0.66500115  1
  Si  Si3674  1  0.60004600  0.67499425  0.86500115  1
  Si  Si3675  1  0.60004600  0.54999425  0.09000115  1
  Si  Si3676  1  0.60004600  0.54999425  0.29000115  1
  Si  Si3677  1  0.60004600  0.54999425  0.49000115  1
  Si  Si3678  1  0.60004600  0.54999425  0.69000115  1
  Si  Si3679  1  0.60004600  0.54999425  0.89000115  1
  Si  Si3680  1  0.60004600  0.42499425  0.11500115  1
  Si  Si3681  1  0.60004600  0.42499425  0.31500115  1
  Si  Si3682  1  0.60004600  0.42499425  0.51500115  1
  Si  Si3683  1  0.60004600  0.42499425  0.71500115  1
  Si  Si3684  1  0.60004600  0.42499425  0.91500115  1
  Si  Si3685  1  0.60004600  0.29999425  0.14000115  1
  Si  Si3686  1  0.60004600  0.29999425  0.34000115  1
  Si  Si3687  1  0.60004600  0.29999425  0.54000115  1
  Si  Si3688  1  0.60004600  0.29999425  0.74000115  1
  Si  Si3689  1  0.60004600  0.29999425  0.94000115  1
  Si  Si3690  1  0.60004600  0.17499425  0.16500115  1
  Si  Si3691  1  0.60004600  0.17499425  0.36500115  1
  Si  Si3692  1  0.60004600  0.17499425  0.56500115  1
  Si  Si3693  1  0.60004600  0.17499425  0.76500115  1
  Si  Si3694  1  0.60004600  0.17499425  0.96500115  1
  Si  Si3695  1  0.60004600  0.04999425  0.19000115  1
  Si  Si3696  1  0.60004600  0.04999425  0.39000115  1
  Si  Si3697  1  0.60004600  0.04999425  0.59000115  1
  Si  Si3698  1  0.60004600  0.04999425  0.79000115  1
  Si  Si3699  1  0.60004600  0.04999425  0.99000115  1
  Si  Si3700  1  0.60004600  0.92499425  0.04000115  1
  Si  Si3701  1  0.60004600  0.92499425  0.24000115  1
  Si  Si3702  1  0.60004600  0.92499425  0.44000115  1
  Si  Si3703  1  0.60004600  0.92499425  0.64000115  1
  Si  Si3704  1  0.60004600  0.92499425  0.84000115  1
  Si  Si3705  1  0.60004600  0.79999425  0.06500115  1
  Si  Si3706  1  0.60004600  0.79999425  0.26500115  1
  Si  Si3707  1  0.60004600  0.79999425  0.46500115  1
  Si  Si3708  1  0.60004600  0.79999425  0.66500115  1
  Si  Si3709  1  0.60004600  0.79999425  0.86500115  1
  Si  Si3710  1  0.60004600  0.67499425  0.09000115  1
  Si  Si3711  1  0.60004600  0.67499425  0.29000115  1
  Si  Si3712  1  0.60004600  0.67499425  0.49000115  1
  Si  Si3713  1  0.60004600  0.67499425  0.69000115  1
  Si  Si3714  1  0.60004600  0.67499425  0.89000115  1
  Si  Si3715  1  0.60004600  0.54999425  0.11500115  1
  Si  Si3716  1  0.60004600  0.54999425  0.31500115  1
  Si  Si3717  1  0.60004600  0.54999425  0.51500115  1
  Si  Si3718  1  0.60004600  0.54999425  0.71500115  1
  Si  Si3719  1  0.60004600  0.54999425  0.91500115  1
  Si  Si3720  1  0.60004600  0.42499425  0.14000115  1
  Si  Si3721  1  0.60004600  0.42499425  0.34000115  1
  Si  Si3722  1  0.60004600  0.42499425  0.54000115  1
  Si  Si3723  1  0.60004600  0.42499425  0.74000115  1
  Si  Si3724  1  0.60004600  0.42499425  0.94000115  1
  Si  Si3725  1  0.60004600  0.29999425  0.16500115  1
  Si  Si3726  1  0.60004600  0.29999425  0.36500115  1
  Si  Si3727  1  0.60004600  0.29999425  0.56500115  1
  Si  Si3728  1  0.60004600  0.29999425  0.76500115  1
  Si  Si3729  1  0.60004600  0.29999425  0.96500115  1
  Si  Si3730  1  0.60004600  0.17499425  0.19000115  1
  Si  Si3731  1  0.60004600  0.17499425  0.39000115  1
  Si  Si3732  1  0.60004600  0.17499425  0.59000115  1
  Si  Si3733  1  0.60004600  0.17499425  0.79000115  1
  Si  Si3734  1  0.60004600  0.17499425  0.99000115  1
  Si  Si3735  1  0.60004600  0.92499425  0.06500115  1
  Si  Si3736  1  0.60004600  0.92499425  0.26500115  1
  Si  Si3737  1  0.60004600  0.92499425  0.46500115  1
  Si  Si3738  1  0.60004600  0.92499425  0.66500115  1
  Si  Si3739  1  0.60004600  0.92499425  0.86500115  1
  Si  Si3740  1  0.60004600  0.79999425  0.09000115  1
  Si  Si3741  1  0.60004600  0.79999425  0.29000115  1
  Si  Si3742  1  0.60004600  0.79999425  0.49000115  1
  Si  Si3743  1  0.60004600  0.79999425  0.69000115  1
  Si  Si3744  1  0.60004600  0.79999425  0.89000115  1
  Si  Si3745  1  0.60004600  0.67499425  0.11500115  1
  Si  Si3746  1  0.60004600  0.67499425  0.31500115  1
  Si  Si3747  1  0.60004600  0.67499425  0.51500115  1
  Si  Si3748  1  0.60004600  0.67499425  0.71500115  1
  Si  Si3749  1  0.60004600  0.67499425  0.91500115  1
  Si  Si3750  1  0.60004600  0.54999425  0.14000115  1
  Si  Si3751  1  0.60004600  0.54999425  0.34000115  1
  Si  Si3752  1  0.60004600  0.54999425  0.54000115  1
  Si  Si3753  1  0.60004600  0.54999425  0.74000115  1
  Si  Si3754  1  0.60004600  0.54999425  0.94000115  1
  Si  Si3755  1  0.60004600  0.42499425  0.16500115  1
  Si  Si3756  1  0.60004600  0.42499425  0.36500115  1
  Si  Si3757  1  0.60004600  0.42499425  0.56500115  1
  Si  Si3758  1  0.60004600  0.42499425  0.76500115  1
  Si  Si3759  1  0.60004600  0.42499425  0.96500115  1
  Si  Si3760  1  0.60004600  0.29999425  0.19000115  1
  Si  Si3761  1  0.60004600  0.29999425  0.39000115  1
  Si  Si3762  1  0.60004600  0.29999425  0.59000115  1
  Si  Si3763  1  0.60004600  0.29999425  0.79000115  1
  Si  Si3764  1  0.60004600  0.29999425  0.99000115  1
  Si  Si3765  1  0.60004600  0.92499425  0.09000115  1
  Si  Si3766  1  0.60004600  0.92499425  0.29000115  1
  Si  Si3767  1  0.60004600  0.92499425  0.49000115  1
  Si  Si3768  1  0.60004600  0.92499425  0.69000115  1
  Si  Si3769  1  0.60004600  0.92499425  0.89000115  1
  Si  Si3770  1  0.60004600  0.79999425  0.11500115  1
  Si  Si3771  1  0.60004600  0.79999425  0.31500115  1
  Si  Si3772  1  0.60004600  0.79999425  0.51500115  1
  Si  Si3773  1  0.60004600  0.79999425  0.71500115  1
  Si  Si3774  1  0.60004600  0.79999425  0.91500115  1
  Si  Si3775  1  0.60004600  0.67499425  0.14000115  1
  Si  Si3776  1  0.60004600  0.67499425  0.34000115  1
  Si  Si3777  1  0.60004600  0.67499425  0.54000115  1
  Si  Si3778  1  0.60004600  0.67499425  0.74000115  1
  Si  Si3779  1  0.60004600  0.67499425  0.94000115  1
  Si  Si3780  1  0.60004600  0.54999425  0.16500115  1
  Si  Si3781  1  0.60004600  0.54999425  0.36500115  1
  Si  Si3782  1  0.60004600  0.54999425  0.56500115  1
  Si  Si3783  1  0.60004600  0.54999425  0.76500115  1
  Si  Si3784  1  0.60004600  0.54999425  0.96500115  1
  Si  Si3785  1  0.60004600  0.42499425  0.19000115  1
  Si  Si3786  1  0.60004600  0.42499425  0.39000115  1
  Si  Si3787  1  0.60004600  0.42499425  0.59000115  1
  Si  Si3788  1  0.60004600  0.42499425  0.79000115  1
  Si  Si3789  1  0.60004600  0.42499425  0.99000115  1
  Si  Si3790  1  0.60004600  0.92499425  0.11500115  1
  Si  Si3791  1  0.60004600  0.92499425  0.31500115  1
  Si  Si3792  1  0.60004600  0.92499425  0.51500115  1
  Si  Si3793  1  0.60004600  0.92499425  0.71500115  1
  Si  Si3794  1  0.60004600  0.92499425  0.91500115  1
  Si  Si3795  1  0.60004600  0.79999425  0.14000115  1
  Si  Si3796  1  0.60004600  0.79999425  0.34000115  1
  Si  Si3797  1  0.60004600  0.79999425  0.54000115  1
  Si  Si3798  1  0.60004600  0.79999425  0.74000115  1
  Si  Si3799  1  0.60004600  0.79999425  0.94000115  1
  Si  Si3800  1  0.60004600  0.67499425  0.16500115  1
  Si  Si3801  1  0.60004600  0.67499425  0.36500115  1
  Si  Si3802  1  0.60004600  0.67499425  0.56500115  1
  Si  Si3803  1  0.60004600  0.67499425  0.76500115  1
  Si  Si3804  1  0.60004600  0.67499425  0.96500115  1
  Si  Si3805  1  0.60004600  0.54999425  0.19000115  1
  Si  Si3806  1  0.60004600  0.54999425  0.39000115  1
  Si  Si3807  1  0.60004600  0.54999425  0.59000115  1
  Si  Si3808  1  0.60004600  0.54999425  0.79000115  1
  Si  Si3809  1  0.60004600  0.54999425  0.99000115  1
  Si  Si3810  1  0.60004600  0.92499425  0.14000115  1
  Si  Si3811  1  0.60004600  0.92499425  0.34000115  1
  Si  Si3812  1  0.60004600  0.92499425  0.54000115  1
  Si  Si3813  1  0.60004600  0.92499425  0.74000115  1
  Si  Si3814  1  0.60004600  0.92499425  0.94000115  1
  Si  Si3815  1  0.60004600  0.79999425  0.16500115  1
  Si  Si3816  1  0.60004600  0.79999425  0.36500115  1
  Si  Si3817  1  0.60004600  0.79999425  0.56500115  1
  Si  Si3818  1  0.60004600  0.79999425  0.76500115  1
  Si  Si3819  1  0.60004600  0.79999425  0.96500115  1
  Si  Si3820  1  0.60004600  0.67499425  0.19000115  1
  Si  Si3821  1  0.60004600  0.67499425  0.39000115  1
  Si  Si3822  1  0.60004600  0.67499425  0.59000115  1
  Si  Si3823  1  0.60004600  0.67499425  0.79000115  1
  Si  Si3824  1  0.60004600  0.67499425  0.99000115  1
  Si  Si3825  1  0.60004600  0.92499425  0.16500115  1
  Si  Si3826  1  0.60004600  0.92499425  0.36500115  1
  Si  Si3827  1  0.60004600  0.92499425  0.56500115  1
  Si  Si3828  1  0.60004600  0.92499425  0.76500115  1
  Si  Si3829  1  0.60004600  0.92499425  0.96500115  1
  Si  Si3830  1  0.60004600  0.79999425  0.19000115  1
  Si  Si3831  1  0.60004600  0.79999425  0.39000115  1
  Si  Si3832  1  0.60004600  0.79999425  0.59000115  1
  Si  Si3833  1  0.60004600  0.79999425  0.79000115  1
  Si  Si3834  1  0.60004600  0.79999425  0.99000115  1
  Si  Si3835  1  0.60004600  0.92499425  0.19000115  1
  Si  Si3836  1  0.60004600  0.92499425  0.39000115  1
  Si  Si3837  1  0.60004600  0.92499425  0.59000115  1
  Si  Si3838  1  0.60004600  0.92499425  0.79000115  1
  Si  Si3839  1  0.60004600  0.92499425  0.99000115  1
  Si  Si3840  1  0.70001900  0.07916429  0.00083381  1
  Si  Si3841  1  0.70001900  0.07916429  0.20083381  1
  Si  Si3842  1  0.70001900  0.07916429  0.40083381  1
  Si  Si3843  1  0.70001900  0.07916429  0.60083381  1
  Si  Si3844  1  0.70001900  0.07916429  0.80083381  1
  Si  Si3845  1  0.70001900  0.20416429  0.00083381  1
  Si  Si3846  1  0.70001900  0.20416429  0.20083381  1
  Si  Si3847  1  0.70001900  0.20416429  0.40083381  1
  Si  Si3848  1  0.70001900  0.20416429  0.60083381  1
  Si  Si3849  1  0.70001900  0.20416429  0.80083381  1
  Si  Si3850  1  0.70001900  0.07916429  0.02583381  1
  Si  Si3851  1  0.70001900  0.07916429  0.22583381  1
  Si  Si3852  1  0.70001900  0.07916429  0.42583381  1
  Si  Si3853  1  0.70001900  0.07916429  0.62583381  1
  Si  Si3854  1  0.70001900  0.07916429  0.82583381  1
  Si  Si3855  1  0.70001900  0.32916429  0.00083381  1
  Si  Si3856  1  0.70001900  0.32916429  0.20083381  1
  Si  Si3857  1  0.70001900  0.32916429  0.40083381  1
  Si  Si3858  1  0.70001900  0.32916429  0.60083381  1
  Si  Si3859  1  0.70001900  0.32916429  0.80083381  1
  Si  Si3860  1  0.70001900  0.20416429  0.02583381  1
  Si  Si3861  1  0.70001900  0.20416429  0.22583381  1
  Si  Si3862  1  0.70001900  0.20416429  0.42583381  1
  Si  Si3863  1  0.70001900  0.20416429  0.62583381  1
  Si  Si3864  1  0.70001900  0.20416429  0.82583381  1
  Si  Si3865  1  0.70001900  0.07916429  0.05083381  1
  Si  Si3866  1  0.70001900  0.07916429  0.25083381  1
  Si  Si3867  1  0.70001900  0.07916429  0.45083381  1
  Si  Si3868  1  0.70001900  0.07916429  0.65083381  1
  Si  Si3869  1  0.70001900  0.07916429  0.85083381  1
  Si  Si3870  1  0.70001900  0.45416429  0.00083381  1
  Si  Si3871  1  0.70001900  0.45416429  0.20083381  1
  Si  Si3872  1  0.70001900  0.45416429  0.40083381  1
  Si  Si3873  1  0.70001900  0.45416429  0.60083381  1
  Si  Si3874  1  0.70001900  0.45416429  0.80083381  1
  Si  Si3875  1  0.70001900  0.32916429  0.02583381  1
  Si  Si3876  1  0.70001900  0.32916429  0.22583381  1
  Si  Si3877  1  0.70001900  0.32916429  0.42583381  1
  Si  Si3878  1  0.70001900  0.32916429  0.62583381  1
  Si  Si3879  1  0.70001900  0.32916429  0.82583381  1
  Si  Si3880  1  0.70001900  0.20416429  0.05083381  1
  Si  Si3881  1  0.70001900  0.20416429  0.25083381  1
  Si  Si3882  1  0.70001900  0.20416429  0.45083381  1
  Si  Si3883  1  0.70001900  0.20416429  0.65083381  1
  Si  Si3884  1  0.70001900  0.20416429  0.85083381  1
  Si  Si3885  1  0.70001900  0.07916429  0.07583381  1
  Si  Si3886  1  0.70001900  0.07916429  0.27583381  1
  Si  Si3887  1  0.70001900  0.07916429  0.47583381  1
  Si  Si3888  1  0.70001900  0.07916429  0.67583381  1
  Si  Si3889  1  0.70001900  0.07916429  0.87583381  1
  Si  Si3890  1  0.70001900  0.57916429  0.00083381  1
  Si  Si3891  1  0.70001900  0.57916429  0.20083381  1
  Si  Si3892  1  0.70001900  0.57916429  0.40083381  1
  Si  Si3893  1  0.70001900  0.57916429  0.60083381  1
  Si  Si3894  1  0.70001900  0.57916429  0.80083381  1
  Si  Si3895  1  0.70001900  0.45416429  0.02583381  1
  Si  Si3896  1  0.70001900  0.45416429  0.22583381  1
  Si  Si3897  1  0.70001900  0.45416429  0.42583381  1
  Si  Si3898  1  0.70001900  0.45416429  0.62583381  1
  Si  Si3899  1  0.70001900  0.45416429  0.82583381  1
  Si  Si3900  1  0.70001900  0.32916429  0.05083381  1
  Si  Si3901  1  0.70001900  0.32916429  0.25083381  1
  Si  Si3902  1  0.70001900  0.32916429  0.45083381  1
  Si  Si3903  1  0.70001900  0.32916429  0.65083381  1
  Si  Si3904  1  0.70001900  0.32916429  0.85083381  1
  Si  Si3905  1  0.70001900  0.20416429  0.07583381  1
  Si  Si3906  1  0.70001900  0.20416429  0.27583381  1
  Si  Si3907  1  0.70001900  0.20416429  0.47583381  1
  Si  Si3908  1  0.70001900  0.20416429  0.67583381  1
  Si  Si3909  1  0.70001900  0.20416429  0.87583381  1
  Si  Si3910  1  0.70001900  0.07916429  0.10083381  1
  Si  Si3911  1  0.70001900  0.07916429  0.30083381  1
  Si  Si3912  1  0.70001900  0.07916429  0.50083381  1
  Si  Si3913  1  0.70001900  0.07916429  0.70083381  1
  Si  Si3914  1  0.70001900  0.07916429  0.90083381  1
  Si  Si3915  1  0.70001900  0.70416429  0.00083381  1
  Si  Si3916  1  0.70001900  0.70416429  0.20083381  1
  Si  Si3917  1  0.70001900  0.70416429  0.40083381  1
  Si  Si3918  1  0.70001900  0.70416429  0.60083381  1
  Si  Si3919  1  0.70001900  0.70416429  0.80083381  1
  Si  Si3920  1  0.70001900  0.57916429  0.02583381  1
  Si  Si3921  1  0.70001900  0.57916429  0.22583381  1
  Si  Si3922  1  0.70001900  0.57916429  0.42583381  1
  Si  Si3923  1  0.70001900  0.57916429  0.62583381  1
  Si  Si3924  1  0.70001900  0.57916429  0.82583381  1
  Si  Si3925  1  0.70001900  0.45416429  0.05083381  1
  Si  Si3926  1  0.70001900  0.45416429  0.25083381  1
  Si  Si3927  1  0.70001900  0.45416429  0.45083381  1
  Si  Si3928  1  0.70001900  0.45416429  0.65083381  1
  Si  Si3929  1  0.70001900  0.45416429  0.85083381  1
  Si  Si3930  1  0.70001900  0.32916429  0.07583381  1
  Si  Si3931  1  0.70001900  0.32916429  0.27583381  1
  Si  Si3932  1  0.70001900  0.32916429  0.47583381  1
  Si  Si3933  1  0.70001900  0.32916429  0.67583381  1
  Si  Si3934  1  0.70001900  0.32916429  0.87583381  1
  Si  Si3935  1  0.70001900  0.20416429  0.10083381  1
  Si  Si3936  1  0.70001900  0.20416429  0.30083381  1
  Si  Si3937  1  0.70001900  0.20416429  0.50083381  1
  Si  Si3938  1  0.70001900  0.20416429  0.70083381  1
  Si  Si3939  1  0.70001900  0.20416429  0.90083381  1
  Si  Si3940  1  0.70001900  0.07916429  0.12583381  1
  Si  Si3941  1  0.70001900  0.07916429  0.32583381  1
  Si  Si3942  1  0.70001900  0.07916429  0.52583381  1
  Si  Si3943  1  0.70001900  0.07916429  0.72583381  1
  Si  Si3944  1  0.70001900  0.07916429  0.92583381  1
  Si  Si3945  1  0.70001900  0.82916429  0.00083381  1
  Si  Si3946  1  0.70001900  0.82916429  0.20083381  1
  Si  Si3947  1  0.70001900  0.82916429  0.40083381  1
  Si  Si3948  1  0.70001900  0.82916429  0.60083381  1
  Si  Si3949  1  0.70001900  0.82916429  0.80083381  1
  Si  Si3950  1  0.70001900  0.70416429  0.02583381  1
  Si  Si3951  1  0.70001900  0.70416429  0.22583381  1
  Si  Si3952  1  0.70001900  0.70416429  0.42583381  1
  Si  Si3953  1  0.70001900  0.70416429  0.62583381  1
  Si  Si3954  1  0.70001900  0.70416429  0.82583381  1
  Si  Si3955  1  0.70001900  0.57916429  0.05083381  1
  Si  Si3956  1  0.70001900  0.57916429  0.25083381  1
  Si  Si3957  1  0.70001900  0.57916429  0.45083381  1
  Si  Si3958  1  0.70001900  0.57916429  0.65083381  1
  Si  Si3959  1  0.70001900  0.57916429  0.85083381  1
  Si  Si3960  1  0.70001900  0.45416429  0.07583381  1
  Si  Si3961  1  0.70001900  0.45416429  0.27583381  1
  Si  Si3962  1  0.70001900  0.45416429  0.47583381  1
  Si  Si3963  1  0.70001900  0.45416429  0.67583381  1
  Si  Si3964  1  0.70001900  0.45416429  0.87583381  1
  Si  Si3965  1  0.70001900  0.32916429  0.10083381  1
  Si  Si3966  1  0.70001900  0.32916429  0.30083381  1
  Si  Si3967  1  0.70001900  0.32916429  0.50083381  1
  Si  Si3968  1  0.70001900  0.32916429  0.70083381  1
  Si  Si3969  1  0.70001900  0.32916429  0.90083381  1
  Si  Si3970  1  0.70001900  0.20416429  0.12583381  1
  Si  Si3971  1  0.70001900  0.20416429  0.32583381  1
  Si  Si3972  1  0.70001900  0.20416429  0.52583381  1
  Si  Si3973  1  0.70001900  0.20416429  0.72583381  1
  Si  Si3974  1  0.70001900  0.20416429  0.92583381  1
  Si  Si3975  1  0.70001900  0.07916429  0.15083381  1
  Si  Si3976  1  0.70001900  0.07916429  0.35083381  1
  Si  Si3977  1  0.70001900  0.07916429  0.55083381  1
  Si  Si3978  1  0.70001900  0.07916429  0.75083381  1
  Si  Si3979  1  0.70001900  0.07916429  0.95083381  1
  Si  Si3980  1  0.70001900  0.95416429  0.00083381  1
  Si  Si3981  1  0.70001900  0.95416429  0.20083381  1
  Si  Si3982  1  0.70001900  0.95416429  0.40083381  1
  Si  Si3983  1  0.70001900  0.95416429  0.60083381  1
  Si  Si3984  1  0.70001900  0.95416429  0.80083381  1
  Si  Si3985  1  0.70001900  0.82916429  0.02583381  1
  Si  Si3986  1  0.70001900  0.82916429  0.22583381  1
  Si  Si3987  1  0.70001900  0.82916429  0.42583381  1
  Si  Si3988  1  0.70001900  0.82916429  0.62583381  1
  Si  Si3989  1  0.70001900  0.82916429  0.82583381  1
  Si  Si3990  1  0.70001900  0.70416429  0.05083381  1
  Si  Si3991  1  0.70001900  0.70416429  0.25083381  1
  Si  Si3992  1  0.70001900  0.70416429  0.45083381  1
  Si  Si3993  1  0.70001900  0.70416429  0.65083381  1
  Si  Si3994  1  0.70001900  0.70416429  0.85083381  1
  Si  Si3995  1  0.70001900  0.57916429  0.07583381  1
  Si  Si3996  1  0.70001900  0.57916429  0.27583381  1
  Si  Si3997  1  0.70001900  0.57916429  0.47583381  1
  Si  Si3998  1  0.70001900  0.57916429  0.67583381  1
  Si  Si3999  1  0.70001900  0.57916429  0.87583381  1
  Si  Si4000  1  0.70001900  0.45416429  0.10083381  1
  Si  Si4001  1  0.70001900  0.45416429  0.30083381  1
  Si  Si4002  1  0.70001900  0.45416429  0.50083381  1
  Si  Si4003  1  0.70001900  0.45416429  0.70083381  1
  Si  Si4004  1  0.70001900  0.45416429  0.90083381  1
  Si  Si4005  1  0.70001900  0.32916429  0.12583381  1
  Si  Si4006  1  0.70001900  0.32916429  0.32583381  1
  Si  Si4007  1  0.70001900  0.32916429  0.52583381  1
  Si  Si4008  1  0.70001900  0.32916429  0.72583381  1
  Si  Si4009  1  0.70001900  0.32916429  0.92583381  1
  Si  Si4010  1  0.70001900  0.20416429  0.15083381  1
  Si  Si4011  1  0.70001900  0.20416429  0.35083381  1
  Si  Si4012  1  0.70001900  0.20416429  0.55083381  1
  Si  Si4013  1  0.70001900  0.20416429  0.75083381  1
  Si  Si4014  1  0.70001900  0.20416429  0.95083381  1
  Si  Si4015  1  0.70001900  0.07916429  0.17583381  1
  Si  Si4016  1  0.70001900  0.07916429  0.37583381  1
  Si  Si4017  1  0.70001900  0.07916429  0.57583381  1
  Si  Si4018  1  0.70001900  0.07916429  0.77583381  1
  Si  Si4019  1  0.70001900  0.07916429  0.97583381  1
  Si  Si4020  1  0.70001900  0.95416429  0.02583381  1
  Si  Si4021  1  0.70001900  0.95416429  0.22583381  1
  Si  Si4022  1  0.70001900  0.95416429  0.42583381  1
  Si  Si4023  1  0.70001900  0.95416429  0.62583381  1
  Si  Si4024  1  0.70001900  0.95416429  0.82583381  1
  Si  Si4025  1  0.70001900  0.82916429  0.05083381  1
  Si  Si4026  1  0.70001900  0.82916429  0.25083381  1
  Si  Si4027  1  0.70001900  0.82916429  0.45083381  1
  Si  Si4028  1  0.70001900  0.82916429  0.65083381  1
  Si  Si4029  1  0.70001900  0.82916429  0.85083381  1
  Si  Si4030  1  0.70001900  0.70416429  0.07583381  1
  Si  Si4031  1  0.70001900  0.70416429  0.27583381  1
  Si  Si4032  1  0.70001900  0.70416429  0.47583381  1
  Si  Si4033  1  0.70001900  0.70416429  0.67583381  1
  Si  Si4034  1  0.70001900  0.70416429  0.87583381  1
  Si  Si4035  1  0.70001900  0.57916429  0.10083381  1
  Si  Si4036  1  0.70001900  0.57916429  0.30083381  1
  Si  Si4037  1  0.70001900  0.57916429  0.50083381  1
  Si  Si4038  1  0.70001900  0.57916429  0.70083381  1
  Si  Si4039  1  0.70001900  0.57916429  0.90083381  1
  Si  Si4040  1  0.70001900  0.45416429  0.12583381  1
  Si  Si4041  1  0.70001900  0.45416429  0.32583381  1
  Si  Si4042  1  0.70001900  0.45416429  0.52583381  1
  Si  Si4043  1  0.70001900  0.45416429  0.72583381  1
  Si  Si4044  1  0.70001900  0.45416429  0.92583381  1
  Si  Si4045  1  0.70001900  0.32916429  0.15083381  1
  Si  Si4046  1  0.70001900  0.32916429  0.35083381  1
  Si  Si4047  1  0.70001900  0.32916429  0.55083381  1
  Si  Si4048  1  0.70001900  0.32916429  0.75083381  1
  Si  Si4049  1  0.70001900  0.32916429  0.95083381  1
  Si  Si4050  1  0.70001900  0.20416429  0.17583381  1
  Si  Si4051  1  0.70001900  0.20416429  0.37583381  1
  Si  Si4052  1  0.70001900  0.20416429  0.57583381  1
  Si  Si4053  1  0.70001900  0.20416429  0.77583381  1
  Si  Si4054  1  0.70001900  0.20416429  0.97583381  1
  Si  Si4055  1  0.70001900  0.95416429  0.05083381  1
  Si  Si4056  1  0.70001900  0.95416429  0.25083381  1
  Si  Si4057  1  0.70001900  0.95416429  0.45083381  1
  Si  Si4058  1  0.70001900  0.95416429  0.65083381  1
  Si  Si4059  1  0.70001900  0.95416429  0.85083381  1
  Si  Si4060  1  0.70001900  0.82916429  0.07583381  1
  Si  Si4061  1  0.70001900  0.82916429  0.27583381  1
  Si  Si4062  1  0.70001900  0.82916429  0.47583381  1
  Si  Si4063  1  0.70001900  0.82916429  0.67583381  1
  Si  Si4064  1  0.70001900  0.82916429  0.87583381  1
  Si  Si4065  1  0.70001900  0.70416429  0.10083381  1
  Si  Si4066  1  0.70001900  0.70416429  0.30083381  1
  Si  Si4067  1  0.70001900  0.70416429  0.50083381  1
  Si  Si4068  1  0.70001900  0.70416429  0.70083381  1
  Si  Si4069  1  0.70001900  0.70416429  0.90083381  1
  Si  Si4070  1  0.70001900  0.57916429  0.12583381  1
  Si  Si4071  1  0.70001900  0.57916429  0.32583381  1
  Si  Si4072  1  0.70001900  0.57916429  0.52583381  1
  Si  Si4073  1  0.70001900  0.57916429  0.72583381  1
  Si  Si4074  1  0.70001900  0.57916429  0.92583381  1
  Si  Si4075  1  0.70001900  0.45416429  0.15083381  1
  Si  Si4076  1  0.70001900  0.45416429  0.35083381  1
  Si  Si4077  1  0.70001900  0.45416429  0.55083381  1
  Si  Si4078  1  0.70001900  0.45416429  0.75083381  1
  Si  Si4079  1  0.70001900  0.45416429  0.95083381  1
  Si  Si4080  1  0.70001900  0.32916429  0.17583381  1
  Si  Si4081  1  0.70001900  0.32916429  0.37583381  1
  Si  Si4082  1  0.70001900  0.32916429  0.57583381  1
  Si  Si4083  1  0.70001900  0.32916429  0.77583381  1
  Si  Si4084  1  0.70001900  0.32916429  0.97583381  1
  Si  Si4085  1  0.70001900  0.95416429  0.07583381  1
  Si  Si4086  1  0.70001900  0.95416429  0.27583381  1
  Si  Si4087  1  0.70001900  0.95416429  0.47583381  1
  Si  Si4088  1  0.70001900  0.95416429  0.67583381  1
  Si  Si4089  1  0.70001900  0.95416429  0.87583381  1
  Si  Si4090  1  0.70001900  0.82916429  0.10083381  1
  Si  Si4091  1  0.70001900  0.82916429  0.30083381  1
  Si  Si4092  1  0.70001900  0.82916429  0.50083381  1
  Si  Si4093  1  0.70001900  0.82916429  0.70083381  1
  Si  Si4094  1  0.70001900  0.82916429  0.90083381  1
  Si  Si4095  1  0.70001900  0.70416429  0.12583381  1
  Si  Si4096  1  0.70001900  0.70416429  0.32583381  1
  Si  Si4097  1  0.70001900  0.70416429  0.52583381  1
  Si  Si4098  1  0.70001900  0.70416429  0.72583381  1
  Si  Si4099  1  0.70001900  0.70416429  0.92583381  1
  Si  Si4100  1  0.70001900  0.57916429  0.15083381  1
  Si  Si4101  1  0.70001900  0.57916429  0.35083381  1
  Si  Si4102  1  0.70001900  0.57916429  0.55083381  1
  Si  Si4103  1  0.70001900  0.57916429  0.75083381  1
  Si  Si4104  1  0.70001900  0.57916429  0.95083381  1
  Si  Si4105  1  0.70001900  0.45416429  0.17583381  1
  Si  Si4106  1  0.70001900  0.45416429  0.37583381  1
  Si  Si4107  1  0.70001900  0.45416429  0.57583381  1
  Si  Si4108  1  0.70001900  0.45416429  0.77583381  1
  Si  Si4109  1  0.70001900  0.45416429  0.97583381  1
  Si  Si4110  1  0.70001900  0.95416429  0.10083381  1
  Si  Si4111  1  0.70001900  0.95416429  0.30083381  1
  Si  Si4112  1  0.70001900  0.95416429  0.50083381  1
  Si  Si4113  1  0.70001900  0.95416429  0.70083381  1
  Si  Si4114  1  0.70001900  0.95416429  0.90083381  1
  Si  Si4115  1  0.70001900  0.82916429  0.12583381  1
  Si  Si4116  1  0.70001900  0.82916429  0.32583381  1
  Si  Si4117  1  0.70001900  0.82916429  0.52583381  1
  Si  Si4118  1  0.70001900  0.82916429  0.72583381  1
  Si  Si4119  1  0.70001900  0.82916429  0.92583381  1
  Si  Si4120  1  0.70001900  0.70416429  0.15083381  1
  Si  Si4121  1  0.70001900  0.70416429  0.35083381  1
  Si  Si4122  1  0.70001900  0.70416429  0.55083381  1
  Si  Si4123  1  0.70001900  0.70416429  0.75083381  1
  Si  Si4124  1  0.70001900  0.70416429  0.95083381  1
  Si  Si4125  1  0.70001900  0.57916429  0.17583381  1
  Si  Si4126  1  0.70001900  0.57916429  0.37583381  1
  Si  Si4127  1  0.70001900  0.57916429  0.57583381  1
  Si  Si4128  1  0.70001900  0.57916429  0.77583381  1
  Si  Si4129  1  0.70001900  0.57916429  0.97583381  1
  Si  Si4130  1  0.70001900  0.95416429  0.12583381  1
  Si  Si4131  1  0.70001900  0.95416429  0.32583381  1
  Si  Si4132  1  0.70001900  0.95416429  0.52583381  1
  Si  Si4133  1  0.70001900  0.95416429  0.72583381  1
  Si  Si4134  1  0.70001900  0.95416429  0.92583381  1
  Si  Si4135  1  0.70001900  0.82916429  0.15083381  1
  Si  Si4136  1  0.70001900  0.82916429  0.35083381  1
  Si  Si4137  1  0.70001900  0.82916429  0.55083381  1
  Si  Si4138  1  0.70001900  0.82916429  0.75083381  1
  Si  Si4139  1  0.70001900  0.82916429  0.95083381  1
  Si  Si4140  1  0.70001900  0.70416429  0.17583381  1
  Si  Si4141  1  0.70001900  0.70416429  0.37583381  1
  Si  Si4142  1  0.70001900  0.70416429  0.57583381  1
  Si  Si4143  1  0.70001900  0.70416429  0.77583381  1
  Si  Si4144  1  0.70001900  0.70416429  0.97583381  1
  Si  Si4145  1  0.70001900  0.95416429  0.15083381  1
  Si  Si4146  1  0.70001900  0.95416429  0.35083381  1
  Si  Si4147  1  0.70001900  0.95416429  0.55083381  1
  Si  Si4148  1  0.70001900  0.95416429  0.75083381  1
  Si  Si4149  1  0.70001900  0.95416429  0.95083381  1
  Si  Si4150  1  0.70001900  0.82916429  0.17583381  1
  Si  Si4151  1  0.70001900  0.82916429  0.37583381  1
  Si  Si4152  1  0.70001900  0.82916429  0.57583381  1
  Si  Si4153  1  0.70001900  0.82916429  0.77583381  1
  Si  Si4154  1  0.70001900  0.82916429  0.97583381  1
  Si  Si4155  1  0.70001900  0.95416429  0.17583381  1
  Si  Si4156  1  0.70001900  0.95416429  0.37583381  1
  Si  Si4157  1  0.70001900  0.95416429  0.57583381  1
  Si  Si4158  1  0.70001900  0.95416429  0.77583381  1
  Si  Si4159  1  0.70001900  0.95416429  0.97583381  1
  Si  Si4160  1  0.40004100  0.07499488  0.01000103  1
  Si  Si4161  1  0.40004100  0.07499488  0.21000103  1
  Si  Si4162  1  0.40004100  0.07499488  0.41000103  1
  Si  Si4163  1  0.40004100  0.07499488  0.61000102  1
  Si  Si4164  1  0.40004100  0.07499488  0.81000103  1
  Si  Si4165  1  0.40004100  0.19999488  0.01000103  1
  Si  Si4166  1  0.40004100  0.19999488  0.21000103  1
  Si  Si4167  1  0.40004100  0.19999488  0.41000103  1
  Si  Si4168  1  0.40004100  0.19999488  0.61000102  1
  Si  Si4169  1  0.40004100  0.19999488  0.81000103  1
  Si  Si4170  1  0.40004100  0.07499488  0.03500102  1
  Si  Si4171  1  0.40004100  0.07499488  0.23500103  1
  Si  Si4172  1  0.40004100  0.07499488  0.43500102  1
  Si  Si4173  1  0.40004100  0.07499488  0.63500102  1
  Si  Si4174  1  0.40004100  0.07499488  0.83500103  1
  Si  Si4175  1  0.40004100  0.32499488  0.01000103  1
  Si  Si4176  1  0.40004100  0.32499488  0.21000103  1
  Si  Si4177  1  0.40004100  0.32499488  0.41000103  1
  Si  Si4178  1  0.40004100  0.32499488  0.61000102  1
  Si  Si4179  1  0.40004100  0.32499488  0.81000103  1
  Si  Si4180  1  0.40004100  0.19999488  0.03500102  1
  Si  Si4181  1  0.40004100  0.19999488  0.23500103  1
  Si  Si4182  1  0.40004100  0.19999488  0.43500102  1
  Si  Si4183  1  0.40004100  0.19999488  0.63500102  1
  Si  Si4184  1  0.40004100  0.19999488  0.83500103  1
  Si  Si4185  1  0.40004100  0.07499488  0.06000102  1
  Si  Si4186  1  0.40004100  0.07499488  0.26000102  1
  Si  Si4187  1  0.40004100  0.07499488  0.46000103  1
  Si  Si4188  1  0.40004100  0.07499488  0.66000103  1
  Si  Si4189  1  0.40004100  0.07499488  0.86000103  1
  Si  Si4190  1  0.40004100  0.44999488  0.01000103  1
  Si  Si4191  1  0.40004100  0.44999488  0.21000103  1
  Si  Si4192  1  0.40004100  0.44999488  0.41000103  1
  Si  Si4193  1  0.40004100  0.44999488  0.61000102  1
  Si  Si4194  1  0.40004100  0.44999488  0.81000103  1
  Si  Si4195  1  0.40004100  0.32499488  0.03500102  1
  Si  Si4196  1  0.40004100  0.32499488  0.23500103  1
  Si  Si4197  1  0.40004100  0.32499488  0.43500102  1
  Si  Si4198  1  0.40004100  0.32499488  0.63500102  1
  Si  Si4199  1  0.40004100  0.32499488  0.83500103  1
  Si  Si4200  1  0.40004100  0.19999488  0.06000102  1
  Si  Si4201  1  0.40004100  0.19999488  0.26000102  1
  Si  Si4202  1  0.40004100  0.19999488  0.46000103  1
  Si  Si4203  1  0.40004100  0.19999488  0.66000103  1
  Si  Si4204  1  0.40004100  0.19999488  0.86000103  1
  Si  Si4205  1  0.40004100  0.07499488  0.08500102  1
  Si  Si4206  1  0.40004100  0.07499488  0.28500103  1
  Si  Si4207  1  0.40004100  0.07499488  0.48500102  1
  Si  Si4208  1  0.40004100  0.07499488  0.68500103  1
  Si  Si4209  1  0.40004100  0.07499488  0.88500102  1
  Si  Si4210  1  0.40004100  0.57499488  0.01000103  1
  Si  Si4211  1  0.40004100  0.57499488  0.21000103  1
  Si  Si4212  1  0.40004100  0.57499488  0.41000103  1
  Si  Si4213  1  0.40004100  0.57499488  0.61000102  1
  Si  Si4214  1  0.40004100  0.57499488  0.81000103  1
  Si  Si4215  1  0.40004100  0.44999488  0.03500102  1
  Si  Si4216  1  0.40004100  0.44999488  0.23500103  1
  Si  Si4217  1  0.40004100  0.44999488  0.43500102  1
  Si  Si4218  1  0.40004100  0.44999488  0.63500102  1
  Si  Si4219  1  0.40004100  0.44999488  0.83500103  1
  Si  Si4220  1  0.40004100  0.32499488  0.06000102  1
  Si  Si4221  1  0.40004100  0.32499488  0.26000102  1
  Si  Si4222  1  0.40004100  0.32499488  0.46000103  1
  Si  Si4223  1  0.40004100  0.32499488  0.66000102  1
  Si  Si4224  1  0.40004100  0.32499488  0.86000103  1
  Si  Si4225  1  0.40004100  0.19999488  0.08500102  1
  Si  Si4226  1  0.40004100  0.19999488  0.28500103  1
  Si  Si4227  1  0.40004100  0.19999488  0.48500102  1
  Si  Si4228  1  0.40004100  0.19999488  0.68500103  1
  Si  Si4229  1  0.40004100  0.19999488  0.88500102  1
  Si  Si4230  1  0.40004100  0.07499488  0.11000103  1
  Si  Si4231  1  0.40004100  0.07499488  0.31000102  1
  Si  Si4232  1  0.40004100  0.07499488  0.51000102  1
  Si  Si4233  1  0.40004100  0.07499488  0.71000103  1
  Si  Si4234  1  0.40004100  0.07499488  0.91000103  1
  Si  Si4235  1  0.40004100  0.69999488  0.01000103  1
  Si  Si4236  1  0.40004100  0.69999488  0.21000103  1
  Si  Si4237  1  0.40004100  0.69999488  0.41000103  1
  Si  Si4238  1  0.40004100  0.69999488  0.61000102  1
  Si  Si4239  1  0.40004100  0.69999488  0.81000103  1
  Si  Si4240  1  0.40004100  0.57499488  0.03500102  1
  Si  Si4241  1  0.40004100  0.57499488  0.23500103  1
  Si  Si4242  1  0.40004100  0.57499488  0.43500102  1
  Si  Si4243  1  0.40004100  0.57499488  0.63500102  1
  Si  Si4244  1  0.40004100  0.57499488  0.83500103  1
  Si  Si4245  1  0.40004100  0.44999488  0.06000102  1
  Si  Si4246  1  0.40004100  0.44999488  0.26000102  1
  Si  Si4247  1  0.40004100  0.44999488  0.46000103  1
  Si  Si4248  1  0.40004100  0.44999488  0.66000102  1
  Si  Si4249  1  0.40004100  0.44999488  0.86000103  1
  Si  Si4250  1  0.40004100  0.32499488  0.08500102  1
  Si  Si4251  1  0.40004100  0.32499488  0.28500103  1
  Si  Si4252  1  0.40004100  0.32499488  0.48500102  1
  Si  Si4253  1  0.40004100  0.32499488  0.68500103  1
  Si  Si4254  1  0.40004100  0.32499488  0.88500102  1
  Si  Si4255  1  0.40004100  0.19999488  0.11000103  1
  Si  Si4256  1  0.40004100  0.19999488  0.31000102  1
  Si  Si4257  1  0.40004100  0.19999488  0.51000102  1
  Si  Si4258  1  0.40004100  0.19999488  0.71000103  1
  Si  Si4259  1  0.40004100  0.19999488  0.91000103  1
  Si  Si4260  1  0.40004100  0.07499488  0.13500102  1
  Si  Si4261  1  0.40004100  0.07499488  0.33500103  1
  Si  Si4262  1  0.40004100  0.07499488  0.53500103  1
  Si  Si4263  1  0.40004100  0.07499488  0.73500103  1
  Si  Si4264  1  0.40004100  0.07499488  0.93500103  1
  Si  Si4265  1  0.40004100  0.82499488  0.01000103  1
  Si  Si4266  1  0.40004100  0.82499488  0.21000103  1
  Si  Si4267  1  0.40004100  0.82499488  0.41000103  1
  Si  Si4268  1  0.40004100  0.82499488  0.61000102  1
  Si  Si4269  1  0.40004100  0.82499488  0.81000103  1
  Si  Si4270  1  0.40004100  0.69999488  0.03500102  1
  Si  Si4271  1  0.40004100  0.69999488  0.23500103  1
  Si  Si4272  1  0.40004100  0.69999488  0.43500102  1
  Si  Si4273  1  0.40004100  0.69999488  0.63500102  1
  Si  Si4274  1  0.40004100  0.69999488  0.83500103  1
  Si  Si4275  1  0.40004100  0.57499488  0.06000102  1
  Si  Si4276  1  0.40004100  0.57499488  0.26000102  1
  Si  Si4277  1  0.40004100  0.57499488  0.46000103  1
  Si  Si4278  1  0.40004100  0.57499488  0.66000102  1
  Si  Si4279  1  0.40004100  0.57499488  0.86000103  1
  Si  Si4280  1  0.40004100  0.44999488  0.08500102  1
  Si  Si4281  1  0.40004100  0.44999488  0.28500103  1
  Si  Si4282  1  0.40004100  0.44999488  0.48500102  1
  Si  Si4283  1  0.40004100  0.44999488  0.68500103  1
  Si  Si4284  1  0.40004100  0.44999488  0.88500102  1
  Si  Si4285  1  0.40004100  0.32499488  0.11000103  1
  Si  Si4286  1  0.40004100  0.32499488  0.31000102  1
  Si  Si4287  1  0.40004100  0.32499488  0.51000102  1
  Si  Si4288  1  0.40004100  0.32499488  0.71000103  1
  Si  Si4289  1  0.40004100  0.32499488  0.91000103  1
  Si  Si4290  1  0.40004100  0.19999488  0.13500102  1
  Si  Si4291  1  0.40004100  0.19999488  0.33500103  1
  Si  Si4292  1  0.40004100  0.19999488  0.53500103  1
  Si  Si4293  1  0.40004100  0.19999488  0.73500103  1
  Si  Si4294  1  0.40004100  0.19999488  0.93500103  1
  Si  Si4295  1  0.40004100  0.07499488  0.16000102  1
  Si  Si4296  1  0.40004100  0.07499488  0.36000102  1
  Si  Si4297  1  0.40004100  0.07499488  0.56000103  1
  Si  Si4298  1  0.40004100  0.07499488  0.76000102  1
  Si  Si4299  1  0.40004100  0.07499488  0.96000103  1
  Si  Si4300  1  0.40004100  0.94999488  0.01000103  1
  Si  Si4301  1  0.40004100  0.94999488  0.21000103  1
  Si  Si4302  1  0.40004100  0.94999488  0.41000103  1
  Si  Si4303  1  0.40004100  0.94999488  0.61000102  1
  Si  Si4304  1  0.40004100  0.94999488  0.81000103  1
  Si  Si4305  1  0.40004100  0.82499488  0.03500102  1
  Si  Si4306  1  0.40004100  0.82499488  0.23500103  1
  Si  Si4307  1  0.40004100  0.82499488  0.43500102  1
  Si  Si4308  1  0.40004100  0.82499488  0.63500102  1
  Si  Si4309  1  0.40004100  0.82499488  0.83500103  1
  Si  Si4310  1  0.40004100  0.69999488  0.06000102  1
  Si  Si4311  1  0.40004100  0.69999488  0.26000102  1
  Si  Si4312  1  0.40004100  0.69999488  0.46000103  1
  Si  Si4313  1  0.40004100  0.69999488  0.66000102  1
  Si  Si4314  1  0.40004100  0.69999488  0.86000103  1
  Si  Si4315  1  0.40004100  0.57499488  0.08500102  1
  Si  Si4316  1  0.40004100  0.57499488  0.28500103  1
  Si  Si4317  1  0.40004100  0.57499488  0.48500102  1
  Si  Si4318  1  0.40004100  0.57499488  0.68500102  1
  Si  Si4319  1  0.40004100  0.57499488  0.88500102  1
  Si  Si4320  1  0.40004100  0.44999488  0.11000103  1
  Si  Si4321  1  0.40004100  0.44999488  0.31000102  1
  Si  Si4322  1  0.40004100  0.44999488  0.51000102  1
  Si  Si4323  1  0.40004100  0.44999488  0.71000103  1
  Si  Si4324  1  0.40004100  0.44999488  0.91000103  1
  Si  Si4325  1  0.40004100  0.32499488  0.13500102  1
  Si  Si4326  1  0.40004100  0.32499488  0.33500103  1
  Si  Si4327  1  0.40004100  0.32499488  0.53500103  1
  Si  Si4328  1  0.40004100  0.32499488  0.73500103  1
  Si  Si4329  1  0.40004100  0.32499488  0.93500103  1
  Si  Si4330  1  0.40004100  0.19999488  0.16000102  1
  Si  Si4331  1  0.40004100  0.19999488  0.36000102  1
  Si  Si4332  1  0.40004100  0.19999488  0.56000103  1
  Si  Si4333  1  0.40004100  0.19999488  0.76000102  1
  Si  Si4334  1  0.40004100  0.19999488  0.96000103  1
  Si  Si4335  1  0.40004100  0.07499488  0.18500103  1
  Si  Si4336  1  0.40004100  0.07499488  0.38500103  1
  Si  Si4337  1  0.40004100  0.07499488  0.58500103  1
  Si  Si4338  1  0.40004100  0.07499488  0.78500103  1
  Si  Si4339  1  0.40004100  0.07499488  0.98500103  1
  Si  Si4340  1  0.40004100  0.94999488  0.03500102  1
  Si  Si4341  1  0.40004100  0.94999488  0.23500102  1
  Si  Si4342  1  0.40004100  0.94999488  0.43500102  1
  Si  Si4343  1  0.40004100  0.94999488  0.63500102  1
  Si  Si4344  1  0.40004100  0.94999488  0.83500103  1
  Si  Si4345  1  0.40004100  0.82499488  0.06000102  1
  Si  Si4346  1  0.40004100  0.82499488  0.26000102  1
  Si  Si4347  1  0.40004100  0.82499488  0.46000103  1
  Si  Si4348  1  0.40004100  0.82499488  0.66000102  1
  Si  Si4349  1  0.40004100  0.82499488  0.86000103  1
  Si  Si4350  1  0.40004100  0.69999488  0.08500102  1
  Si  Si4351  1  0.40004100  0.69999488  0.28500103  1
  Si  Si4352  1  0.40004100  0.69999488  0.48500102  1
  Si  Si4353  1  0.40004100  0.69999488  0.68500102  1
  Si  Si4354  1  0.40004100  0.69999488  0.88500102  1
  Si  Si4355  1  0.40004100  0.57499488  0.11000103  1
  Si  Si4356  1  0.40004100  0.57499488  0.31000102  1
  Si  Si4357  1  0.40004100  0.57499488  0.51000102  1
  Si  Si4358  1  0.40004100  0.57499488  0.71000103  1
  Si  Si4359  1  0.40004100  0.57499488  0.91000103  1
  Si  Si4360  1  0.40004100  0.44999488  0.13500102  1
  Si  Si4361  1  0.40004100  0.44999488  0.33500103  1
  Si  Si4362  1  0.40004100  0.44999488  0.53500103  1
  Si  Si4363  1  0.40004100  0.44999488  0.73500103  1
  Si  Si4364  1  0.40004100  0.44999488  0.93500103  1
  Si  Si4365  1  0.40004100  0.32499488  0.16000102  1
  Si  Si4366  1  0.40004100  0.32499488  0.36000102  1
  Si  Si4367  1  0.40004100  0.32499488  0.56000103  1
  Si  Si4368  1  0.40004100  0.32499488  0.76000102  1
  Si  Si4369  1  0.40004100  0.32499488  0.96000103  1
  Si  Si4370  1  0.40004100  0.19999488  0.18500103  1
  Si  Si4371  1  0.40004100  0.19999488  0.38500103  1
  Si  Si4372  1  0.40004100  0.19999488  0.58500103  1
  Si  Si4373  1  0.40004100  0.19999488  0.78500103  1
  Si  Si4374  1  0.40004100  0.19999488  0.98500103  1
  Si  Si4375  1  0.40004100  0.94999488  0.06000102  1
  Si  Si4376  1  0.40004100  0.94999488  0.26000102  1
  Si  Si4377  1  0.40004100  0.94999488  0.46000103  1
  Si  Si4378  1  0.40004100  0.94999488  0.66000102  1
  Si  Si4379  1  0.40004100  0.94999488  0.86000103  1
  Si  Si4380  1  0.40004100  0.82499488  0.08500102  1
  Si  Si4381  1  0.40004100  0.82499488  0.28500103  1
  Si  Si4382  1  0.40004100  0.82499488  0.48500102  1
  Si  Si4383  1  0.40004100  0.82499488  0.68500102  1
  Si  Si4384  1  0.40004100  0.82499488  0.88500102  1
  Si  Si4385  1  0.40004100  0.69999488  0.11000103  1
  Si  Si4386  1  0.40004100  0.69999488  0.31000102  1
  Si  Si4387  1  0.40004100  0.69999488  0.51000102  1
  Si  Si4388  1  0.40004100  0.69999488  0.71000102  1
  Si  Si4389  1  0.40004100  0.69999488  0.91000103  1
  Si  Si4390  1  0.40004100  0.57499488  0.13500102  1
  Si  Si4391  1  0.40004100  0.57499488  0.33500103  1
  Si  Si4392  1  0.40004100  0.57499488  0.53500103  1
  Si  Si4393  1  0.40004100  0.57499488  0.73500103  1
  Si  Si4394  1  0.40004100  0.57499488  0.93500103  1
  Si  Si4395  1  0.40004100  0.44999488  0.16000102  1
  Si  Si4396  1  0.40004100  0.44999488  0.36000102  1
  Si  Si4397  1  0.40004100  0.44999488  0.56000103  1
  Si  Si4398  1  0.40004100  0.44999488  0.76000102  1
  Si  Si4399  1  0.40004100  0.44999488  0.96000103  1
  Si  Si4400  1  0.40004100  0.32499488  0.18500103  1
  Si  Si4401  1  0.40004100  0.32499488  0.38500102  1
  Si  Si4402  1  0.40004100  0.32499488  0.58500103  1
  Si  Si4403  1  0.40004100  0.32499488  0.78500103  1
  Si  Si4404  1  0.40004100  0.32499488  0.98500103  1
  Si  Si4405  1  0.40004100  0.94999488  0.08500102  1
  Si  Si4406  1  0.40004100  0.94999488  0.28500103  1
  Si  Si4407  1  0.40004100  0.94999488  0.48500102  1
  Si  Si4408  1  0.40004100  0.94999488  0.68500102  1
  Si  Si4409  1  0.40004100  0.94999488  0.88500102  1
  Si  Si4410  1  0.40004100  0.82499488  0.11000103  1
  Si  Si4411  1  0.40004100  0.82499488  0.31000102  1
  Si  Si4412  1  0.40004100  0.82499488  0.51000102  1
  Si  Si4413  1  0.40004100  0.82499488  0.71000102  1
  Si  Si4414  1  0.40004100  0.82499488  0.91000103  1
  Si  Si4415  1  0.40004100  0.69999488  0.13500102  1
  Si  Si4416  1  0.40004100  0.69999488  0.33500103  1
  Si  Si4417  1  0.40004100  0.69999488  0.53500103  1
  Si  Si4418  1  0.40004100  0.69999488  0.73500103  1
  Si  Si4419  1  0.40004100  0.69999488  0.93500103  1
  Si  Si4420  1  0.40004100  0.57499488  0.16000102  1
  Si  Si4421  1  0.40004100  0.57499488  0.36000102  1
  Si  Si4422  1  0.40004100  0.57499488  0.56000103  1
  Si  Si4423  1  0.40004100  0.57499488  0.76000102  1
  Si  Si4424  1  0.40004100  0.57499488  0.96000103  1
  Si  Si4425  1  0.40004100  0.44999488  0.18500103  1
  Si  Si4426  1  0.40004100  0.44999488  0.38500102  1
  Si  Si4427  1  0.40004100  0.44999488  0.58500103  1
  Si  Si4428  1  0.40004100  0.44999488  0.78500103  1
  Si  Si4429  1  0.40004100  0.44999488  0.98500103  1
  Si  Si4430  1  0.40004100  0.94999488  0.11000103  1
  Si  Si4431  1  0.40004100  0.94999488  0.31000102  1
  Si  Si4432  1  0.40004100  0.94999488  0.51000102  1
  Si  Si4433  1  0.40004100  0.94999488  0.71000102  1
  Si  Si4434  1  0.40004100  0.94999488  0.91000103  1
  Si  Si4435  1  0.40004100  0.82499488  0.13500102  1
  Si  Si4436  1  0.40004100  0.82499488  0.33500103  1
  Si  Si4437  1  0.40004100  0.82499488  0.53500103  1
  Si  Si4438  1  0.40004100  0.82499488  0.73500103  1
  Si  Si4439  1  0.40004100  0.82499488  0.93500103  1
  Si  Si4440  1  0.40004100  0.69999488  0.16000102  1
  Si  Si4441  1  0.40004100  0.69999488  0.36000102  1
  Si  Si4442  1  0.40004100  0.69999488  0.56000103  1
  Si  Si4443  1  0.40004100  0.69999488  0.76000102  1
  Si  Si4444  1  0.40004100  0.69999488  0.96000103  1
  Si  Si4445  1  0.40004100  0.57499488  0.18500103  1
  Si  Si4446  1  0.40004100  0.57499488  0.38500102  1
  Si  Si4447  1  0.40004100  0.57499488  0.58500103  1
  Si  Si4448  1  0.40004100  0.57499488  0.78500103  1
  Si  Si4449  1  0.40004100  0.57499488  0.98500103  1
  Si  Si4450  1  0.40004100  0.94999488  0.13500102  1
  Si  Si4451  1  0.40004100  0.94999488  0.33500103  1
  Si  Si4452  1  0.40004100  0.94999488  0.53500103  1
  Si  Si4453  1  0.40004100  0.94999488  0.73500103  1
  Si  Si4454  1  0.40004100  0.94999488  0.93500103  1
  Si  Si4455  1  0.40004100  0.82499488  0.16000102  1
  Si  Si4456  1  0.40004100  0.82499488  0.36000102  1
  Si  Si4457  1  0.40004100  0.82499488  0.56000103  1
  Si  Si4458  1  0.40004100  0.82499488  0.76000102  1
  Si  Si4459  1  0.40004100  0.82499488  0.96000103  1
  Si  Si4460  1  0.40004100  0.69999488  0.18500103  1
  Si  Si4461  1  0.40004100  0.69999488  0.38500102  1
  Si  Si4462  1  0.40004100  0.69999488  0.58500103  1
  Si  Si4463  1  0.40004100  0.69999488  0.78500103  1
  Si  Si4464  1  0.40004100  0.69999488  0.98500103  1
  Si  Si4465  1  0.40004100  0.94999488  0.16000102  1
  Si  Si4466  1  0.40004100  0.94999488  0.36000102  1
  Si  Si4467  1  0.40004100  0.94999488  0.56000103  1
  Si  Si4468  1  0.40004100  0.94999488  0.76000102  1
  Si  Si4469  1  0.40004100  0.94999488  0.96000103  1
  Si  Si4470  1  0.40004100  0.82499488  0.18500103  1
  Si  Si4471  1  0.40004100  0.82499488  0.38500102  1
  Si  Si4472  1  0.40004100  0.82499488  0.58500103  1
  Si  Si4473  1  0.40004100  0.82499488  0.78500103  1
  Si  Si4474  1  0.40004100  0.82499488  0.98500103  1
  Si  Si4475  1  0.40004100  0.94999488  0.18500103  1
  Si  Si4476  1  0.40004100  0.94999488  0.38500102  1
  Si  Si4477  1  0.40004100  0.94999488  0.58500103  1
  Si  Si4478  1  0.40004100  0.94999488  0.78500103  1
  Si  Si4479  1  0.40004100  0.94999488  0.98500103  1
  Si  Si4480  1  0.00003100  0.04166279  0.00833411  1
  Si  Si4481  1  0.00003100  0.04166279  0.20833411  1
  Si  Si4482  1  0.00003100  0.04166279  0.40833411  1
  Si  Si4483  1  0.00003100  0.04166279  0.60833411  1
  Si  Si4484  1  0.00003100  0.04166279  0.80833411  1
  Si  Si4485  1  0.00003100  0.16666279  0.00833411  1
  Si  Si4486  1  0.00003100  0.16666279  0.20833411  1
  Si  Si4487  1  0.00003100  0.16666279  0.40833411  1
  Si  Si4488  1  0.00003100  0.16666279  0.60833411  1
  Si  Si4489  1  0.00003100  0.16666279  0.80833411  1
  Si  Si4490  1  0.00003100  0.04166279  0.03333411  1
  Si  Si4491  1  0.00003100  0.04166279  0.23333411  1
  Si  Si4492  1  0.00003100  0.04166279  0.43333411  1
  Si  Si4493  1  0.00003100  0.04166279  0.63333411  1
  Si  Si4494  1  0.00003100  0.04166279  0.83333411  1
  Si  Si4495  1  0.00003100  0.29166279  0.00833411  1
  Si  Si4496  1  0.00003100  0.29166279  0.20833411  1
  Si  Si4497  1  0.00003100  0.29166279  0.40833411  1
  Si  Si4498  1  0.00003100  0.29166279  0.60833411  1
  Si  Si4499  1  0.00003100  0.29166279  0.80833411  1
  Si  Si4500  1  0.00003100  0.16666279  0.03333411  1
  Si  Si4501  1  0.00003100  0.16666279  0.23333411  1
  Si  Si4502  1  0.00003100  0.16666279  0.43333411  1
  Si  Si4503  1  0.00003100  0.16666279  0.63333411  1
  Si  Si4504  1  0.00003100  0.16666279  0.83333411  1
  Si  Si4505  1  0.00003100  0.04166279  0.05833411  1
  Si  Si4506  1  0.00003100  0.04166279  0.25833411  1
  Si  Si4507  1  0.00003100  0.04166279  0.45833411  1
  Si  Si4508  1  0.00003100  0.04166279  0.65833411  1
  Si  Si4509  1  0.00003100  0.04166279  0.85833411  1
  Si  Si4510  1  0.00003100  0.41666279  0.00833411  1
  Si  Si4511  1  0.00003100  0.41666279  0.20833411  1
  Si  Si4512  1  0.00003100  0.41666279  0.40833411  1
  Si  Si4513  1  0.00003100  0.41666279  0.60833411  1
  Si  Si4514  1  0.00003100  0.41666279  0.80833411  1
  Si  Si4515  1  0.00003100  0.29166279  0.03333411  1
  Si  Si4516  1  0.00003100  0.29166279  0.23333411  1
  Si  Si4517  1  0.00003100  0.29166279  0.43333411  1
  Si  Si4518  1  0.00003100  0.29166279  0.63333411  1
  Si  Si4519  1  0.00003100  0.29166279  0.83333411  1
  Si  Si4520  1  0.00003100  0.16666279  0.05833411  1
  Si  Si4521  1  0.00003100  0.16666279  0.25833411  1
  Si  Si4522  1  0.00003100  0.16666279  0.45833411  1
  Si  Si4523  1  0.00003100  0.16666279  0.65833411  1
  Si  Si4524  1  0.00003100  0.16666279  0.85833411  1
  Si  Si4525  1  0.00003100  0.04166279  0.08333411  1
  Si  Si4526  1  0.00003100  0.04166279  0.28333411  1
  Si  Si4527  1  0.00003100  0.04166279  0.48333411  1
  Si  Si4528  1  0.00003100  0.04166279  0.68333411  1
  Si  Si4529  1  0.00003100  0.04166279  0.88333411  1
  Si  Si4530  1  0.00003100  0.54166279  0.00833411  1
  Si  Si4531  1  0.00003100  0.54166279  0.20833411  1
  Si  Si4532  1  0.00003100  0.54166279  0.40833411  1
  Si  Si4533  1  0.00003100  0.54166279  0.60833411  1
  Si  Si4534  1  0.00003100  0.54166279  0.80833411  1
  Si  Si4535  1  0.00003100  0.41666279  0.03333411  1
  Si  Si4536  1  0.00003100  0.41666279  0.23333411  1
  Si  Si4537  1  0.00003100  0.41666279  0.43333411  1
  Si  Si4538  1  0.00003100  0.41666279  0.63333411  1
  Si  Si4539  1  0.00003100  0.41666279  0.83333411  1
  Si  Si4540  1  0.00003100  0.29166279  0.05833411  1
  Si  Si4541  1  0.00003100  0.29166279  0.25833411  1
  Si  Si4542  1  0.00003100  0.29166279  0.45833411  1
  Si  Si4543  1  0.00003100  0.29166279  0.65833411  1
  Si  Si4544  1  0.00003100  0.29166279  0.85833411  1
  Si  Si4545  1  0.00003100  0.16666279  0.08333411  1
  Si  Si4546  1  0.00003100  0.16666279  0.28333411  1
  Si  Si4547  1  0.00003100  0.16666279  0.48333411  1
  Si  Si4548  1  0.00003100  0.16666279  0.68333411  1
  Si  Si4549  1  0.00003100  0.16666279  0.88333411  1
  Si  Si4550  1  0.00003100  0.04166279  0.10833411  1
  Si  Si4551  1  0.00003100  0.04166279  0.30833411  1
  Si  Si4552  1  0.00003100  0.04166279  0.50833411  1
  Si  Si4553  1  0.00003100  0.04166279  0.70833411  1
  Si  Si4554  1  0.00003100  0.04166279  0.90833411  1
  Si  Si4555  1  0.00003100  0.66666279  0.00833411  1
  Si  Si4556  1  0.00003100  0.66666279  0.20833411  1
  Si  Si4557  1  0.00003100  0.66666279  0.40833411  1
  Si  Si4558  1  0.00003100  0.66666279  0.60833411  1
  Si  Si4559  1  0.00003100  0.66666279  0.80833411  1
  Si  Si4560  1  0.00003100  0.54166279  0.03333411  1
  Si  Si4561  1  0.00003100  0.54166279  0.23333411  1
  Si  Si4562  1  0.00003100  0.54166279  0.43333411  1
  Si  Si4563  1  0.00003100  0.54166279  0.63333411  1
  Si  Si4564  1  0.00003100  0.54166279  0.83333411  1
  Si  Si4565  1  0.00003100  0.41666279  0.05833411  1
  Si  Si4566  1  0.00003100  0.41666279  0.25833411  1
  Si  Si4567  1  0.00003100  0.41666279  0.45833411  1
  Si  Si4568  1  0.00003100  0.41666279  0.65833411  1
  Si  Si4569  1  0.00003100  0.41666279  0.85833411  1
  Si  Si4570  1  0.00003100  0.29166279  0.08333411  1
  Si  Si4571  1  0.00003100  0.29166279  0.28333411  1
  Si  Si4572  1  0.00003100  0.29166279  0.48333411  1
  Si  Si4573  1  0.00003100  0.29166279  0.68333411  1
  Si  Si4574  1  0.00003100  0.29166279  0.88333411  1
  Si  Si4575  1  0.00003100  0.16666279  0.10833411  1
  Si  Si4576  1  0.00003100  0.16666279  0.30833411  1
  Si  Si4577  1  0.00003100  0.16666279  0.50833411  1
  Si  Si4578  1  0.00003100  0.16666279  0.70833411  1
  Si  Si4579  1  0.00003100  0.16666279  0.90833411  1
  Si  Si4580  1  0.00003100  0.04166279  0.13333411  1
  Si  Si4581  1  0.00003100  0.04166279  0.33333411  1
  Si  Si4582  1  0.00003100  0.04166279  0.53333411  1
  Si  Si4583  1  0.00003100  0.04166279  0.73333411  1
  Si  Si4584  1  0.00003100  0.04166279  0.93333411  1
  Si  Si4585  1  0.00003100  0.79166279  0.00833411  1
  Si  Si4586  1  0.00003100  0.79166279  0.20833411  1
  Si  Si4587  1  0.00003100  0.79166279  0.40833411  1
  Si  Si4588  1  0.00003100  0.79166279  0.60833411  1
  Si  Si4589  1  0.00003100  0.79166279  0.80833411  1
  Si  Si4590  1  0.00003100  0.66666279  0.03333411  1
  Si  Si4591  1  0.00003100  0.66666279  0.23333411  1
  Si  Si4592  1  0.00003100  0.66666279  0.43333411  1
  Si  Si4593  1  0.00003100  0.66666279  0.63333411  1
  Si  Si4594  1  0.00003100  0.66666279  0.83333411  1
  Si  Si4595  1  0.00003100  0.54166279  0.05833411  1
  Si  Si4596  1  0.00003100  0.54166279  0.25833411  1
  Si  Si4597  1  0.00003100  0.54166279  0.45833411  1
  Si  Si4598  1  0.00003100  0.54166279  0.65833411  1
  Si  Si4599  1  0.00003100  0.54166279  0.85833411  1
  Si  Si4600  1  0.00003100  0.41666279  0.08333411  1
  Si  Si4601  1  0.00003100  0.41666279  0.28333411  1
  Si  Si4602  1  0.00003100  0.41666279  0.48333411  1
  Si  Si4603  1  0.00003100  0.41666279  0.68333411  1
  Si  Si4604  1  0.00003100  0.41666279  0.88333411  1
  Si  Si4605  1  0.00003100  0.29166279  0.10833411  1
  Si  Si4606  1  0.00003100  0.29166279  0.30833411  1
  Si  Si4607  1  0.00003100  0.29166279  0.50833411  1
  Si  Si4608  1  0.00003100  0.29166279  0.70833411  1
  Si  Si4609  1  0.00003100  0.29166279  0.90833411  1
  Si  Si4610  1  0.00003100  0.16666279  0.13333411  1
  Si  Si4611  1  0.00003100  0.16666279  0.33333411  1
  Si  Si4612  1  0.00003100  0.16666279  0.53333411  1
  Si  Si4613  1  0.00003100  0.16666279  0.73333411  1
  Si  Si4614  1  0.00003100  0.16666279  0.93333411  1
  Si  Si4615  1  0.00003100  0.04166279  0.15833411  1
  Si  Si4616  1  0.00003100  0.04166279  0.35833411  1
  Si  Si4617  1  0.00003100  0.04166279  0.55833411  1
  Si  Si4618  1  0.00003100  0.04166279  0.75833411  1
  Si  Si4619  1  0.00003100  0.04166279  0.95833411  1
  Si  Si4620  1  0.00003100  0.91666279  0.00833411  1
  Si  Si4621  1  0.00003100  0.91666279  0.20833411  1
  Si  Si4622  1  0.00003100  0.91666279  0.40833411  1
  Si  Si4623  1  0.00003100  0.91666279  0.60833411  1
  Si  Si4624  1  0.00003100  0.91666279  0.80833411  1
  Si  Si4625  1  0.00003100  0.79166279  0.03333411  1
  Si  Si4626  1  0.00003100  0.79166279  0.23333411  1
  Si  Si4627  1  0.00003100  0.79166279  0.43333411  1
  Si  Si4628  1  0.00003100  0.79166279  0.63333411  1
  Si  Si4629  1  0.00003100  0.79166279  0.83333411  1
  Si  Si4630  1  0.00003100  0.66666279  0.05833411  1
  Si  Si4631  1  0.00003100  0.66666279  0.25833411  1
  Si  Si4632  1  0.00003100  0.66666279  0.45833411  1
  Si  Si4633  1  0.00003100  0.66666279  0.65833411  1
  Si  Si4634  1  0.00003100  0.66666279  0.85833411  1
  Si  Si4635  1  0.00003100  0.54166279  0.08333411  1
  Si  Si4636  1  0.00003100  0.54166279  0.28333411  1
  Si  Si4637  1  0.00003100  0.54166279  0.48333411  1
  Si  Si4638  1  0.00003100  0.54166279  0.68333411  1
  Si  Si4639  1  0.00003100  0.54166279  0.88333411  1
  Si  Si4640  1  0.00003100  0.41666279  0.10833411  1
  Si  Si4641  1  0.00003100  0.41666279  0.30833411  1
  Si  Si4642  1  0.00003100  0.41666279  0.50833411  1
  Si  Si4643  1  0.00003100  0.41666279  0.70833411  1
  Si  Si4644  1  0.00003100  0.41666279  0.90833411  1
  Si  Si4645  1  0.00003100  0.29166279  0.13333411  1
  Si  Si4646  1  0.00003100  0.29166279  0.33333411  1
  Si  Si4647  1  0.00003100  0.29166279  0.53333411  1
  Si  Si4648  1  0.00003100  0.29166279  0.73333411  1
  Si  Si4649  1  0.00003100  0.29166279  0.93333411  1
  Si  Si4650  1  0.00003100  0.16666279  0.15833411  1
  Si  Si4651  1  0.00003100  0.16666279  0.35833411  1
  Si  Si4652  1  0.00003100  0.16666279  0.55833411  1
  Si  Si4653  1  0.00003100  0.16666279  0.75833411  1
  Si  Si4654  1  0.00003100  0.16666279  0.95833411  1
  Si  Si4655  1  0.00003100  0.04166279  0.18333411  1
  Si  Si4656  1  0.00003100  0.04166279  0.38333411  1
  Si  Si4657  1  0.00003100  0.04166279  0.58333411  1
  Si  Si4658  1  0.00003100  0.04166279  0.78333411  1
  Si  Si4659  1  0.00003100  0.04166279  0.98333411  1
  Si  Si4660  1  0.00003100  0.91666279  0.03333411  1
  Si  Si4661  1  0.00003100  0.91666279  0.23333411  1
  Si  Si4662  1  0.00003100  0.91666279  0.43333411  1
  Si  Si4663  1  0.00003100  0.91666279  0.63333411  1
  Si  Si4664  1  0.00003100  0.91666279  0.83333411  1
  Si  Si4665  1  0.00003100  0.79166279  0.05833411  1
  Si  Si4666  1  0.00003100  0.79166279  0.25833411  1
  Si  Si4667  1  0.00003100  0.79166279  0.45833411  1
  Si  Si4668  1  0.00003100  0.79166279  0.65833411  1
  Si  Si4669  1  0.00003100  0.79166279  0.85833411  1
  Si  Si4670  1  0.00003100  0.66666279  0.08333411  1
  Si  Si4671  1  0.00003100  0.66666279  0.28333411  1
  Si  Si4672  1  0.00003100  0.66666279  0.48333411  1
  Si  Si4673  1  0.00003100  0.66666279  0.68333411  1
  Si  Si4674  1  0.00003100  0.66666279  0.88333411  1
  Si  Si4675  1  0.00003100  0.54166279  0.10833411  1
  Si  Si4676  1  0.00003100  0.54166279  0.30833411  1
  Si  Si4677  1  0.00003100  0.54166279  0.50833411  1
  Si  Si4678  1  0.00003100  0.54166279  0.70833411  1
  Si  Si4679  1  0.00003100  0.54166279  0.90833411  1
  Si  Si4680  1  0.00003100  0.41666279  0.13333411  1
  Si  Si4681  1  0.00003100  0.41666279  0.33333411  1
  Si  Si4682  1  0.00003100  0.41666279  0.53333411  1
  Si  Si4683  1  0.00003100  0.41666279  0.73333411  1
  Si  Si4684  1  0.00003100  0.41666279  0.93333411  1
  Si  Si4685  1  0.00003100  0.29166279  0.15833411  1
  Si  Si4686  1  0.00003100  0.29166279  0.35833411  1
  Si  Si4687  1  0.00003100  0.29166279  0.55833411  1
  Si  Si4688  1  0.00003100  0.29166279  0.75833411  1
  Si  Si4689  1  0.00003100  0.29166279  0.95833411  1
  Si  Si4690  1  0.00003100  0.16666279  0.18333411  1
  Si  Si4691  1  0.00003100  0.16666279  0.38333411  1
  Si  Si4692  1  0.00003100  0.16666279  0.58333411  1
  Si  Si4693  1  0.00003100  0.16666279  0.78333411  1
  Si  Si4694  1  0.00003100  0.16666279  0.98333411  1
  Si  Si4695  1  0.00003100  0.91666279  0.05833411  1
  Si  Si4696  1  0.00003100  0.91666279  0.25833411  1
  Si  Si4697  1  0.00003100  0.91666279  0.45833411  1
  Si  Si4698  1  0.00003100  0.91666279  0.65833411  1
  Si  Si4699  1  0.00003100  0.91666279  0.85833411  1
  Si  Si4700  1  0.00003100  0.79166279  0.08333411  1
  Si  Si4701  1  0.00003100  0.79166279  0.28333411  1
  Si  Si4702  1  0.00003100  0.79166279  0.48333411  1
  Si  Si4703  1  0.00003100  0.79166279  0.68333411  1
  Si  Si4704  1  0.00003100  0.79166279  0.88333411  1
  Si  Si4705  1  0.00003100  0.66666279  0.10833411  1
  Si  Si4706  1  0.00003100  0.66666279  0.30833411  1
  Si  Si4707  1  0.00003100  0.66666279  0.50833411  1
  Si  Si4708  1  0.00003100  0.66666279  0.70833411  1
  Si  Si4709  1  0.00003100  0.66666279  0.90833411  1
  Si  Si4710  1  0.00003100  0.54166279  0.13333411  1
  Si  Si4711  1  0.00003100  0.54166279  0.33333411  1
  Si  Si4712  1  0.00003100  0.54166279  0.53333411  1
  Si  Si4713  1  0.00003100  0.54166279  0.73333411  1
  Si  Si4714  1  0.00003100  0.54166279  0.93333411  1
  Si  Si4715  1  0.00003100  0.41666279  0.15833411  1
  Si  Si4716  1  0.00003100  0.41666279  0.35833411  1
  Si  Si4717  1  0.00003100  0.41666279  0.55833411  1
  Si  Si4718  1  0.00003100  0.41666279  0.75833411  1
  Si  Si4719  1  0.00003100  0.41666279  0.95833411  1
  Si  Si4720  1  0.00003100  0.29166279  0.18333411  1
  Si  Si4721  1  0.00003100  0.29166279  0.38333411  1
  Si  Si4722  1  0.00003100  0.29166279  0.58333411  1
  Si  Si4723  1  0.00003100  0.29166279  0.78333411  1
  Si  Si4724  1  0.00003100  0.29166279  0.98333411  1
  Si  Si4725  1  0.00003100  0.91666279  0.08333411  1
  Si  Si4726  1  0.00003100  0.91666279  0.28333411  1
  Si  Si4727  1  0.00003100  0.91666279  0.48333411  1
  Si  Si4728  1  0.00003100  0.91666279  0.68333411  1
  Si  Si4729  1  0.00003100  0.91666279  0.88333411  1
  Si  Si4730  1  0.00003100  0.79166279  0.10833411  1
  Si  Si4731  1  0.00003100  0.79166279  0.30833411  1
  Si  Si4732  1  0.00003100  0.79166279  0.50833411  1
  Si  Si4733  1  0.00003100  0.79166279  0.70833411  1
  Si  Si4734  1  0.00003100  0.79166279  0.90833411  1
  Si  Si4735  1  0.00003100  0.66666279  0.13333411  1
  Si  Si4736  1  0.00003100  0.66666279  0.33333411  1
  Si  Si4737  1  0.00003100  0.66666279  0.53333411  1
  Si  Si4738  1  0.00003100  0.66666279  0.73333411  1
  Si  Si4739  1  0.00003100  0.66666279  0.93333411  1
  Si  Si4740  1  0.00003100  0.54166279  0.15833411  1
  Si  Si4741  1  0.00003100  0.54166279  0.35833411  1
  Si  Si4742  1  0.00003100  0.54166279  0.55833411  1
  Si  Si4743  1  0.00003100  0.54166279  0.75833411  1
  Si  Si4744  1  0.00003100  0.54166279  0.95833411  1
  Si  Si4745  1  0.00003100  0.41666279  0.18333411  1
  Si  Si4746  1  0.00003100  0.41666279  0.38333411  1
  Si  Si4747  1  0.00003100  0.41666279  0.58333411  1
  Si  Si4748  1  0.00003100  0.41666279  0.78333411  1
  Si  Si4749  1  0.00003100  0.41666279  0.98333411  1
  Si  Si4750  1  0.00003100  0.91666279  0.10833411  1
  Si  Si4751  1  0.00003100  0.91666279  0.30833411  1
  Si  Si4752  1  0.00003100  0.91666279  0.50833411  1
  Si  Si4753  1  0.00003100  0.91666279  0.70833411  1
  Si  Si4754  1  0.00003100  0.91666279  0.90833411  1
  Si  Si4755  1  0.00003100  0.79166279  0.13333411  1
  Si  Si4756  1  0.00003100  0.79166279  0.33333411  1
  Si  Si4757  1  0.00003100  0.79166279  0.53333411  1
  Si  Si4758  1  0.00003100  0.79166279  0.73333411  1
  Si  Si4759  1  0.00003100  0.79166279  0.93333411  1
  Si  Si4760  1  0.00003100  0.66666279  0.15833411  1
  Si  Si4761  1  0.00003100  0.66666279  0.35833411  1
  Si  Si4762  1  0.00003100  0.66666279  0.55833411  1
  Si  Si4763  1  0.00003100  0.66666279  0.75833411  1
  Si  Si4764  1  0.00003100  0.66666279  0.95833411  1
  Si  Si4765  1  0.00003100  0.54166279  0.18333411  1
  Si  Si4766  1  0.00003100  0.54166279  0.38333411  1
  Si  Si4767  1  0.00003100  0.54166279  0.58333411  1
  Si  Si4768  1  0.00003100  0.54166279  0.78333411  1
  Si  Si4769  1  0.00003100  0.54166279  0.98333411  1
  Si  Si4770  1  0.00003100  0.91666279  0.13333411  1
  Si  Si4771  1  0.00003100  0.91666279  0.33333411  1
  Si  Si4772  1  0.00003100  0.91666279  0.53333411  1
  Si  Si4773  1  0.00003100  0.91666279  0.73333411  1
  Si  Si4774  1  0.00003100  0.91666279  0.93333411  1
  Si  Si4775  1  0.00003100  0.79166279  0.15833411  1
  Si  Si4776  1  0.00003100  0.79166279  0.35833411  1
  Si  Si4777  1  0.00003100  0.79166279  0.55833411  1
  Si  Si4778  1  0.00003100  0.79166279  0.75833411  1
  Si  Si4779  1  0.00003100  0.79166279  0.95833411  1
  Si  Si4780  1  0.00003100  0.66666279  0.18333411  1
  Si  Si4781  1  0.00003100  0.66666279  0.38333411  1
  Si  Si4782  1  0.00003100  0.66666279  0.58333411  1
  Si  Si4783  1  0.00003100  0.66666279  0.78333411  1
  Si  Si4784  1  0.00003100  0.66666279  0.98333411  1
  Si  Si4785  1  0.00003100  0.91666279  0.15833411  1
  Si  Si4786  1  0.00003100  0.91666279  0.35833411  1
  Si  Si4787  1  0.00003100  0.91666279  0.55833411  1
  Si  Si4788  1  0.00003100  0.91666279  0.75833411  1
  Si  Si4789  1  0.00003100  0.91666279  0.95833411  1
  Si  Si4790  1  0.00003100  0.79166279  0.18333411  1
  Si  Si4791  1  0.00003100  0.79166279  0.38333411  1
  Si  Si4792  1  0.00003100  0.79166279  0.58333411  1
  Si  Si4793  1  0.00003100  0.79166279  0.78333411  1
  Si  Si4794  1  0.00003100  0.79166279  0.98333411  1
  Si  Si4795  1  0.00003100  0.91666279  0.18333411  1
  Si  Si4796  1  0.00003100  0.91666279  0.38333411  1
  Si  Si4797  1  0.00003100  0.91666279  0.58333411  1
  Si  Si4798  1  0.00003100  0.91666279  0.78333411  1
  Si  Si4799  1  0.00003100  0.91666279  0.98333411  1
  Si  Si4800  1  0.30002000  0.00416417  0.01583383  1
  Si  Si4801  1  0.30002000  0.00416417  0.21583383  1
  Si  Si4802  1  0.30002000  0.00416417  0.41583383  1
  Si  Si4803  1  0.30002000  0.00416417  0.61583383  1
  Si  Si4804  1  0.30002000  0.00416417  0.81583383  1
  Si  Si4805  1  0.30002000  0.12916417  0.01583383  1
  Si  Si4806  1  0.30002000  0.12916417  0.21583383  1
  Si  Si4807  1  0.30002000  0.12916417  0.41583383  1
  Si  Si4808  1  0.30002000  0.12916417  0.61583383  1
  Si  Si4809  1  0.30002000  0.12916417  0.81583383  1
  Si  Si4810  1  0.30002000  0.00416417  0.04083383  1
  Si  Si4811  1  0.30002000  0.00416417  0.24083383  1
  Si  Si4812  1  0.30002000  0.00416417  0.44083383  1
  Si  Si4813  1  0.30002000  0.00416417  0.64083383  1
  Si  Si4814  1  0.30002000  0.00416417  0.84083383  1
  Si  Si4815  1  0.30002000  0.25416417  0.01583383  1
  Si  Si4816  1  0.30002000  0.25416417  0.21583383  1
  Si  Si4817  1  0.30002000  0.25416417  0.41583383  1
  Si  Si4818  1  0.30002000  0.25416417  0.61583383  1
  Si  Si4819  1  0.30002000  0.25416417  0.81583383  1
  Si  Si4820  1  0.30002000  0.12916417  0.04083383  1
  Si  Si4821  1  0.30002000  0.12916417  0.24083383  1
  Si  Si4822  1  0.30002000  0.12916417  0.44083383  1
  Si  Si4823  1  0.30002000  0.12916417  0.64083383  1
  Si  Si4824  1  0.30002000  0.12916417  0.84083383  1
  Si  Si4825  1  0.30002000  0.00416417  0.06583383  1
  Si  Si4826  1  0.30002000  0.00416417  0.26583383  1
  Si  Si4827  1  0.30002000  0.00416417  0.46583383  1
  Si  Si4828  1  0.30002000  0.00416417  0.66583383  1
  Si  Si4829  1  0.30002000  0.00416417  0.86583383  1
  Si  Si4830  1  0.30002000  0.37916417  0.01583383  1
  Si  Si4831  1  0.30002000  0.37916417  0.21583383  1
  Si  Si4832  1  0.30002000  0.37916417  0.41583383  1
  Si  Si4833  1  0.30002000  0.37916417  0.61583383  1
  Si  Si4834  1  0.30002000  0.37916417  0.81583383  1
  Si  Si4835  1  0.30002000  0.25416417  0.04083383  1
  Si  Si4836  1  0.30002000  0.25416417  0.24083383  1
  Si  Si4837  1  0.30002000  0.25416417  0.44083383  1
  Si  Si4838  1  0.30002000  0.25416417  0.64083383  1
  Si  Si4839  1  0.30002000  0.25416417  0.84083383  1
  Si  Si4840  1  0.30002000  0.12916417  0.06583383  1
  Si  Si4841  1  0.30002000  0.12916417  0.26583383  1
  Si  Si4842  1  0.30002000  0.12916417  0.46583383  1
  Si  Si4843  1  0.30002000  0.12916417  0.66583383  1
  Si  Si4844  1  0.30002000  0.12916417  0.86583383  1
  Si  Si4845  1  0.30002000  0.00416417  0.09083383  1
  Si  Si4846  1  0.30002000  0.00416417  0.29083383  1
  Si  Si4847  1  0.30002000  0.00416417  0.49083383  1
  Si  Si4848  1  0.30002000  0.00416417  0.69083383  1
  Si  Si4849  1  0.30002000  0.00416417  0.89083383  1
  Si  Si4850  1  0.30002000  0.50416417  0.01583383  1
  Si  Si4851  1  0.30002000  0.50416417  0.21583383  1
  Si  Si4852  1  0.30002000  0.50416417  0.41583383  1
  Si  Si4853  1  0.30002000  0.50416417  0.61583383  1
  Si  Si4854  1  0.30002000  0.50416417  0.81583383  1
  Si  Si4855  1  0.30002000  0.37916417  0.04083383  1
  Si  Si4856  1  0.30002000  0.37916417  0.24083383  1
  Si  Si4857  1  0.30002000  0.37916417  0.44083383  1
  Si  Si4858  1  0.30002000  0.37916417  0.64083383  1
  Si  Si4859  1  0.30002000  0.37916417  0.84083383  1
  Si  Si4860  1  0.30002000  0.25416417  0.06583383  1
  Si  Si4861  1  0.30002000  0.25416417  0.26583383  1
  Si  Si4862  1  0.30002000  0.25416417  0.46583383  1
  Si  Si4863  1  0.30002000  0.25416417  0.66583383  1
  Si  Si4864  1  0.30002000  0.25416417  0.86583383  1
  Si  Si4865  1  0.30002000  0.12916417  0.09083383  1
  Si  Si4866  1  0.30002000  0.12916417  0.29083383  1
  Si  Si4867  1  0.30002000  0.12916417  0.49083383  1
  Si  Si4868  1  0.30002000  0.12916417  0.69083383  1
  Si  Si4869  1  0.30002000  0.12916417  0.89083383  1
  Si  Si4870  1  0.30002000  0.00416417  0.11583383  1
  Si  Si4871  1  0.30002000  0.00416417  0.31583383  1
  Si  Si4872  1  0.30002000  0.00416417  0.51583383  1
  Si  Si4873  1  0.30002000  0.00416417  0.71583383  1
  Si  Si4874  1  0.30002000  0.00416417  0.91583383  1
  Si  Si4875  1  0.30002000  0.62916417  0.01583383  1
  Si  Si4876  1  0.30002000  0.62916417  0.21583383  1
  Si  Si4877  1  0.30002000  0.62916417  0.41583383  1
  Si  Si4878  1  0.30002000  0.62916417  0.61583383  1
  Si  Si4879  1  0.30002000  0.62916417  0.81583383  1
  Si  Si4880  1  0.30002000  0.50416417  0.04083383  1
  Si  Si4881  1  0.30002000  0.50416417  0.24083383  1
  Si  Si4882  1  0.30002000  0.50416417  0.44083383  1
  Si  Si4883  1  0.30002000  0.50416417  0.64083383  1
  Si  Si4884  1  0.30002000  0.50416417  0.84083383  1
  Si  Si4885  1  0.30002000  0.37916417  0.06583383  1
  Si  Si4886  1  0.30002000  0.37916417  0.26583383  1
  Si  Si4887  1  0.30002000  0.37916417  0.46583383  1
  Si  Si4888  1  0.30002000  0.37916417  0.66583383  1
  Si  Si4889  1  0.30002000  0.37916417  0.86583383  1
  Si  Si4890  1  0.30002000  0.25416417  0.09083383  1
  Si  Si4891  1  0.30002000  0.25416417  0.29083383  1
  Si  Si4892  1  0.30002000  0.25416417  0.49083383  1
  Si  Si4893  1  0.30002000  0.25416417  0.69083383  1
  Si  Si4894  1  0.30002000  0.25416417  0.89083383  1
  Si  Si4895  1  0.30002000  0.12916417  0.11583383  1
  Si  Si4896  1  0.30002000  0.12916417  0.31583383  1
  Si  Si4897  1  0.30002000  0.12916417  0.51583383  1
  Si  Si4898  1  0.30002000  0.12916417  0.71583383  1
  Si  Si4899  1  0.30002000  0.12916417  0.91583383  1
  Si  Si4900  1  0.30002000  0.00416417  0.14083383  1
  Si  Si4901  1  0.30002000  0.00416417  0.34083383  1
  Si  Si4902  1  0.30002000  0.00416417  0.54083383  1
  Si  Si4903  1  0.30002000  0.00416417  0.74083383  1
  Si  Si4904  1  0.30002000  0.00416417  0.94083383  1
  Si  Si4905  1  0.30002000  0.75416417  0.01583383  1
  Si  Si4906  1  0.30002000  0.75416417  0.21583383  1
  Si  Si4907  1  0.30002000  0.75416417  0.41583383  1
  Si  Si4908  1  0.30002000  0.75416417  0.61583383  1
  Si  Si4909  1  0.30002000  0.75416417  0.81583383  1
  Si  Si4910  1  0.30002000  0.62916417  0.04083383  1
  Si  Si4911  1  0.30002000  0.62916417  0.24083383  1
  Si  Si4912  1  0.30002000  0.62916417  0.44083383  1
  Si  Si4913  1  0.30002000  0.62916417  0.64083383  1
  Si  Si4914  1  0.30002000  0.62916417  0.84083383  1
  Si  Si4915  1  0.30002000  0.50416417  0.06583383  1
  Si  Si4916  1  0.30002000  0.50416417  0.26583383  1
  Si  Si4917  1  0.30002000  0.50416417  0.46583383  1
  Si  Si4918  1  0.30002000  0.50416417  0.66583383  1
  Si  Si4919  1  0.30002000  0.50416417  0.86583383  1
  Si  Si4920  1  0.30002000  0.37916417  0.09083383  1
  Si  Si4921  1  0.30002000  0.37916417  0.29083383  1
  Si  Si4922  1  0.30002000  0.37916417  0.49083383  1
  Si  Si4923  1  0.30002000  0.37916417  0.69083383  1
  Si  Si4924  1  0.30002000  0.37916417  0.89083383  1
  Si  Si4925  1  0.30002000  0.25416417  0.11583383  1
  Si  Si4926  1  0.30002000  0.25416417  0.31583383  1
  Si  Si4927  1  0.30002000  0.25416417  0.51583383  1
  Si  Si4928  1  0.30002000  0.25416417  0.71583383  1
  Si  Si4929  1  0.30002000  0.25416417  0.91583383  1
  Si  Si4930  1  0.30002000  0.12916417  0.14083383  1
  Si  Si4931  1  0.30002000  0.12916417  0.34083383  1
  Si  Si4932  1  0.30002000  0.12916417  0.54083383  1
  Si  Si4933  1  0.30002000  0.12916417  0.74083383  1
  Si  Si4934  1  0.30002000  0.12916417  0.94083383  1
  Si  Si4935  1  0.30002000  0.00416417  0.16583383  1
  Si  Si4936  1  0.30002000  0.00416417  0.36583383  1
  Si  Si4937  1  0.30002000  0.00416417  0.56583383  1
  Si  Si4938  1  0.30002000  0.00416417  0.76583383  1
  Si  Si4939  1  0.30002000  0.00416417  0.96583383  1
  Si  Si4940  1  0.30002000  0.87916417  0.01583383  1
  Si  Si4941  1  0.30002000  0.87916417  0.21583383  1
  Si  Si4942  1  0.30002000  0.87916417  0.41583383  1
  Si  Si4943  1  0.30002000  0.87916417  0.61583383  1
  Si  Si4944  1  0.30002000  0.87916417  0.81583383  1
  Si  Si4945  1  0.30002000  0.75416417  0.04083383  1
  Si  Si4946  1  0.30002000  0.75416417  0.24083383  1
  Si  Si4947  1  0.30002000  0.75416417  0.44083383  1
  Si  Si4948  1  0.30002000  0.75416417  0.64083383  1
  Si  Si4949  1  0.30002000  0.75416417  0.84083383  1
  Si  Si4950  1  0.30002000  0.62916417  0.06583383  1
  Si  Si4951  1  0.30002000  0.62916417  0.26583383  1
  Si  Si4952  1  0.30002000  0.62916417  0.46583383  1
  Si  Si4953  1  0.30002000  0.62916417  0.66583383  1
  Si  Si4954  1  0.30002000  0.62916417  0.86583383  1
  Si  Si4955  1  0.30002000  0.50416417  0.09083383  1
  Si  Si4956  1  0.30002000  0.50416417  0.29083383  1
  Si  Si4957  1  0.30002000  0.50416417  0.49083383  1
  Si  Si4958  1  0.30002000  0.50416417  0.69083383  1
  Si  Si4959  1  0.30002000  0.50416417  0.89083383  1
  Si  Si4960  1  0.30002000  0.37916417  0.11583383  1
  Si  Si4961  1  0.30002000  0.37916417  0.31583383  1
  Si  Si4962  1  0.30002000  0.37916417  0.51583383  1
  Si  Si4963  1  0.30002000  0.37916417  0.71583383  1
  Si  Si4964  1  0.30002000  0.37916417  0.91583383  1
  Si  Si4965  1  0.30002000  0.25416417  0.14083383  1
  Si  Si4966  1  0.30002000  0.25416417  0.34083383  1
  Si  Si4967  1  0.30002000  0.25416417  0.54083383  1
  Si  Si4968  1  0.30002000  0.25416417  0.74083383  1
  Si  Si4969  1  0.30002000  0.25416417  0.94083383  1
  Si  Si4970  1  0.30002000  0.12916417  0.16583383  1
  Si  Si4971  1  0.30002000  0.12916417  0.36583383  1
  Si  Si4972  1  0.30002000  0.12916417  0.56583383  1
  Si  Si4973  1  0.30002000  0.12916417  0.76583383  1
  Si  Si4974  1  0.30002000  0.12916417  0.96583383  1
  Si  Si4975  1  0.30002000  0.00416417  0.19083383  1
  Si  Si4976  1  0.30002000  0.00416417  0.39083383  1
  Si  Si4977  1  0.30002000  0.00416417  0.59083383  1
  Si  Si4978  1  0.30002000  0.00416417  0.79083383  1
  Si  Si4979  1  0.30002000  0.00416417  0.99083383  1
  Si  Si4980  1  0.30002000  0.87916417  0.04083383  1
  Si  Si4981  1  0.30002000  0.87916417  0.24083383  1
  Si  Si4982  1  0.30002000  0.87916417  0.44083383  1
  Si  Si4983  1  0.30002000  0.87916417  0.64083383  1
  Si  Si4984  1  0.30002000  0.87916417  0.84083383  1
  Si  Si4985  1  0.30002000  0.75416417  0.06583383  1
  Si  Si4986  1  0.30002000  0.75416417  0.26583383  1
  Si  Si4987  1  0.30002000  0.75416417  0.46583383  1
  Si  Si4988  1  0.30002000  0.75416417  0.66583383  1
  Si  Si4989  1  0.30002000  0.75416417  0.86583383  1
  Si  Si4990  1  0.30002000  0.62916417  0.09083383  1
  Si  Si4991  1  0.30002000  0.62916417  0.29083383  1
  Si  Si4992  1  0.30002000  0.62916417  0.49083383  1
  Si  Si4993  1  0.30002000  0.62916417  0.69083383  1
  Si  Si4994  1  0.30002000  0.62916417  0.89083383  1
  Si  Si4995  1  0.30002000  0.50416417  0.11583383  1
  Si  Si4996  1  0.30002000  0.50416417  0.31583383  1
  Si  Si4997  1  0.30002000  0.50416417  0.51583383  1
  Si  Si4998  1  0.30002000  0.50416417  0.71583383  1
  Si  Si4999  1  0.30002000  0.50416417  0.91583383  1
  Si  Si5000  1  0.30002000  0.37916417  0.14083383  1
  Si  Si5001  1  0.30002000  0.37916417  0.34083383  1
  Si  Si5002  1  0.30002000  0.37916417  0.54083383  1
  Si  Si5003  1  0.30002000  0.37916417  0.74083383  1
  Si  Si5004  1  0.30002000  0.37916417  0.94083383  1
  Si  Si5005  1  0.30002000  0.25416417  0.16583383  1
  Si  Si5006  1  0.30002000  0.25416417  0.36583383  1
  Si  Si5007  1  0.30002000  0.25416417  0.56583383  1
  Si  Si5008  1  0.30002000  0.25416417  0.76583383  1
  Si  Si5009  1  0.30002000  0.25416417  0.96583383  1
  Si  Si5010  1  0.30002000  0.12916417  0.19083383  1
  Si  Si5011  1  0.30002000  0.12916417  0.39083383  1
  Si  Si5012  1  0.30002000  0.12916417  0.59083383  1
  Si  Si5013  1  0.30002000  0.12916417  0.79083383  1
  Si  Si5014  1  0.30002000  0.12916417  0.99083383  1
  Si  Si5015  1  0.30002000  0.87916417  0.06583383  1
  Si  Si5016  1  0.30002000  0.87916417  0.26583383  1
  Si  Si5017  1  0.30002000  0.87916417  0.46583383  1
  Si  Si5018  1  0.30002000  0.87916417  0.66583383  1
  Si  Si5019  1  0.30002000  0.87916417  0.86583383  1
  Si  Si5020  1  0.30002000  0.75416417  0.09083383  1
  Si  Si5021  1  0.30002000  0.75416417  0.29083383  1
  Si  Si5022  1  0.30002000  0.75416417  0.49083383  1
  Si  Si5023  1  0.30002000  0.75416417  0.69083383  1
  Si  Si5024  1  0.30002000  0.75416417  0.89083383  1
  Si  Si5025  1  0.30002000  0.62916417  0.11583383  1
  Si  Si5026  1  0.30002000  0.62916417  0.31583383  1
  Si  Si5027  1  0.30002000  0.62916417  0.51583383  1
  Si  Si5028  1  0.30002000  0.62916417  0.71583383  1
  Si  Si5029  1  0.30002000  0.62916417  0.91583383  1
  Si  Si5030  1  0.30002000  0.50416417  0.14083383  1
  Si  Si5031  1  0.30002000  0.50416417  0.34083383  1
  Si  Si5032  1  0.30002000  0.50416417  0.54083383  1
  Si  Si5033  1  0.30002000  0.50416417  0.74083383  1
  Si  Si5034  1  0.30002000  0.50416417  0.94083383  1
  Si  Si5035  1  0.30002000  0.37916417  0.16583383  1
  Si  Si5036  1  0.30002000  0.37916417  0.36583383  1
  Si  Si5037  1  0.30002000  0.37916417  0.56583383  1
  Si  Si5038  1  0.30002000  0.37916417  0.76583383  1
  Si  Si5039  1  0.30002000  0.37916417  0.96583383  1
  Si  Si5040  1  0.30002000  0.25416417  0.19083383  1
  Si  Si5041  1  0.30002000  0.25416417  0.39083383  1
  Si  Si5042  1  0.30002000  0.25416417  0.59083383  1
  Si  Si5043  1  0.30002000  0.25416417  0.79083383  1
  Si  Si5044  1  0.30002000  0.25416417  0.99083383  1
  Si  Si5045  1  0.30002000  0.87916417  0.09083383  1
  Si  Si5046  1  0.30002000  0.87916417  0.29083383  1
  Si  Si5047  1  0.30002000  0.87916417  0.49083383  1
  Si  Si5048  1  0.30002000  0.87916417  0.69083383  1
  Si  Si5049  1  0.30002000  0.87916417  0.89083383  1
  Si  Si5050  1  0.30002000  0.75416417  0.11583383  1
  Si  Si5051  1  0.30002000  0.75416417  0.31583383  1
  Si  Si5052  1  0.30002000  0.75416417  0.51583383  1
  Si  Si5053  1  0.30002000  0.75416417  0.71583383  1
  Si  Si5054  1  0.30002000  0.75416417  0.91583383  1
  Si  Si5055  1  0.30002000  0.62916417  0.14083383  1
  Si  Si5056  1  0.30002000  0.62916417  0.34083383  1
  Si  Si5057  1  0.30002000  0.62916417  0.54083383  1
  Si  Si5058  1  0.30002000  0.62916417  0.74083383  1
  Si  Si5059  1  0.30002000  0.62916417  0.94083383  1
  Si  Si5060  1  0.30002000  0.50416417  0.16583383  1
  Si  Si5061  1  0.30002000  0.50416417  0.36583383  1
  Si  Si5062  1  0.30002000  0.50416417  0.56583383  1
  Si  Si5063  1  0.30002000  0.50416417  0.76583383  1
  Si  Si5064  1  0.30002000  0.50416417  0.96583383  1
  Si  Si5065  1  0.30002000  0.37916417  0.19083383  1
  Si  Si5066  1  0.30002000  0.37916417  0.39083383  1
  Si  Si5067  1  0.30002000  0.37916417  0.59083383  1
  Si  Si5068  1  0.30002000  0.37916417  0.79083383  1
  Si  Si5069  1  0.30002000  0.37916417  0.99083383  1
  Si  Si5070  1  0.30002000  0.87916417  0.11583383  1
  Si  Si5071  1  0.30002000  0.87916417  0.31583383  1
  Si  Si5072  1  0.30002000  0.87916417  0.51583383  1
  Si  Si5073  1  0.30002000  0.87916417  0.71583383  1
  Si  Si5074  1  0.30002000  0.87916417  0.91583383  1
  Si  Si5075  1  0.30002000  0.75416417  0.14083383  1
  Si  Si5076  1  0.30002000  0.75416417  0.34083383  1
  Si  Si5077  1  0.30002000  0.75416417  0.54083383  1
  Si  Si5078  1  0.30002000  0.75416417  0.74083383  1
  Si  Si5079  1  0.30002000  0.75416417  0.94083383  1
  Si  Si5080  1  0.30002000  0.62916417  0.16583383  1
  Si  Si5081  1  0.30002000  0.62916417  0.36583383  1
  Si  Si5082  1  0.30002000  0.62916417  0.56583383  1
  Si  Si5083  1  0.30002000  0.62916417  0.76583383  1
  Si  Si5084  1  0.30002000  0.62916417  0.96583383  1
  Si  Si5085  1  0.30002000  0.50416417  0.19083383  1
  Si  Si5086  1  0.30002000  0.50416417  0.39083383  1
  Si  Si5087  1  0.30002000  0.50416417  0.59083383  1
  Si  Si5088  1  0.30002000  0.50416417  0.79083383  1
  Si  Si5089  1  0.30002000  0.50416417  0.99083383  1
  Si  Si5090  1  0.30002000  0.87916417  0.14083383  1
  Si  Si5091  1  0.30002000  0.87916417  0.34083383  1
  Si  Si5092  1  0.30002000  0.87916417  0.54083383  1
  Si  Si5093  1  0.30002000  0.87916417  0.74083383  1
  Si  Si5094  1  0.30002000  0.87916417  0.94083383  1
  Si  Si5095  1  0.30002000  0.75416417  0.16583383  1
  Si  Si5096  1  0.30002000  0.75416417  0.36583383  1
  Si  Si5097  1  0.30002000  0.75416417  0.56583383  1
  Si  Si5098  1  0.30002000  0.75416417  0.76583383  1
  Si  Si5099  1  0.30002000  0.75416417  0.96583383  1
  Si  Si5100  1  0.30002000  0.62916417  0.19083383  1
  Si  Si5101  1  0.30002000  0.62916417  0.39083383  1
  Si  Si5102  1  0.30002000  0.62916417  0.59083383  1
  Si  Si5103  1  0.30002000  0.62916417  0.79083383  1
  Si  Si5104  1  0.30002000  0.62916417  0.99083383  1
  Si  Si5105  1  0.30002000  0.87916417  0.16583383  1
  Si  Si5106  1  0.30002000  0.87916417  0.36583383  1
  Si  Si5107  1  0.30002000  0.87916417  0.56583383  1
  Si  Si5108  1  0.30002000  0.87916417  0.76583383  1
  Si  Si5109  1  0.30002000  0.87916417  0.96583383  1
  Si  Si5110  1  0.30002000  0.75416417  0.19083383  1
  Si  Si5111  1  0.30002000  0.75416417  0.39083383  1
  Si  Si5112  1  0.30002000  0.75416417  0.59083383  1
  Si  Si5113  1  0.30002000  0.75416417  0.79083383  1
  Si  Si5114  1  0.30002000  0.75416417  0.99083383  1
  Si  Si5115  1  0.30002000  0.87916417  0.19083383  1
  Si  Si5116  1  0.30002000  0.87916417  0.39083383  1
  Si  Si5117  1  0.30002000  0.87916417  0.59083383  1
  Si  Si5118  1  0.30002000  0.87916417  0.79083383  1
  Si  Si5119  1  0.30002000  0.87916417  0.99083383  1
  Si  Si5120  1  0.10009500  0.07082146  0.01916904  1
  Si  Si5121  1  0.10009500  0.07082146  0.21916904  1
  Si  Si5122  1  0.10009500  0.07082146  0.41916904  1
  Si  Si5123  1  0.10009500  0.07082146  0.61916904  1
  Si  Si5124  1  0.10009500  0.07082146  0.81916904  1
  Si  Si5125  1  0.10009500  0.19582146  0.01916904  1
  Si  Si5126  1  0.10009500  0.19582146  0.21916904  1
  Si  Si5127  1  0.10009500  0.19582146  0.41916904  1
  Si  Si5128  1  0.10009500  0.19582146  0.61916904  1
  Si  Si5129  1  0.10009500  0.19582146  0.81916904  1
  Si  Si5130  1  0.10009500  0.07082146  0.04416904  1
  Si  Si5131  1  0.10009500  0.07082146  0.24416904  1
  Si  Si5132  1  0.10009500  0.07082146  0.44416904  1
  Si  Si5133  1  0.10009500  0.07082146  0.64416904  1
  Si  Si5134  1  0.10009500  0.07082146  0.84416904  1
  Si  Si5135  1  0.10009500  0.32082146  0.01916904  1
  Si  Si5136  1  0.10009500  0.32082146  0.21916904  1
  Si  Si5137  1  0.10009500  0.32082146  0.41916904  1
  Si  Si5138  1  0.10009500  0.32082146  0.61916904  1
  Si  Si5139  1  0.10009500  0.32082146  0.81916904  1
  Si  Si5140  1  0.10009500  0.19582146  0.04416904  1
  Si  Si5141  1  0.10009500  0.19582146  0.24416904  1
  Si  Si5142  1  0.10009500  0.19582146  0.44416904  1
  Si  Si5143  1  0.10009500  0.19582146  0.64416904  1
  Si  Si5144  1  0.10009500  0.19582146  0.84416904  1
  Si  Si5145  1  0.10009500  0.07082146  0.06916904  1
  Si  Si5146  1  0.10009500  0.07082146  0.26916904  1
  Si  Si5147  1  0.10009500  0.07082146  0.46916904  1
  Si  Si5148  1  0.10009500  0.07082146  0.66916904  1
  Si  Si5149  1  0.10009500  0.07082146  0.86916904  1
  Si  Si5150  1  0.10009500  0.44582146  0.01916904  1
  Si  Si5151  1  0.10009500  0.44582146  0.21916904  1
  Si  Si5152  1  0.10009500  0.44582146  0.41916904  1
  Si  Si5153  1  0.10009500  0.44582146  0.61916904  1
  Si  Si5154  1  0.10009500  0.44582146  0.81916904  1
  Si  Si5155  1  0.10009500  0.32082146  0.04416904  1
  Si  Si5156  1  0.10009500  0.32082146  0.24416904  1
  Si  Si5157  1  0.10009500  0.32082146  0.44416904  1
  Si  Si5158  1  0.10009500  0.32082146  0.64416904  1
  Si  Si5159  1  0.10009500  0.32082146  0.84416904  1
  Si  Si5160  1  0.10009500  0.19582146  0.06916904  1
  Si  Si5161  1  0.10009500  0.19582146  0.26916904  1
  Si  Si5162  1  0.10009500  0.19582146  0.46916904  1
  Si  Si5163  1  0.10009500  0.19582146  0.66916904  1
  Si  Si5164  1  0.10009500  0.19582146  0.86916904  1
  Si  Si5165  1  0.10009500  0.07082146  0.09416904  1
  Si  Si5166  1  0.10009500  0.07082146  0.29416904  1
  Si  Si5167  1  0.10009500  0.07082146  0.49416904  1
  Si  Si5168  1  0.10009500  0.07082146  0.69416904  1
  Si  Si5169  1  0.10009500  0.07082146  0.89416904  1
  Si  Si5170  1  0.10009500  0.57082146  0.01916904  1
  Si  Si5171  1  0.10009500  0.57082146  0.21916904  1
  Si  Si5172  1  0.10009500  0.57082146  0.41916904  1
  Si  Si5173  1  0.10009500  0.57082146  0.61916904  1
  Si  Si5174  1  0.10009500  0.57082146  0.81916904  1
  Si  Si5175  1  0.10009500  0.44582146  0.04416904  1
  Si  Si5176  1  0.10009500  0.44582146  0.24416904  1
  Si  Si5177  1  0.10009500  0.44582146  0.44416904  1
  Si  Si5178  1  0.10009500  0.44582146  0.64416904  1
  Si  Si5179  1  0.10009500  0.44582146  0.84416904  1
  Si  Si5180  1  0.10009500  0.32082146  0.06916904  1
  Si  Si5181  1  0.10009500  0.32082146  0.26916904  1
  Si  Si5182  1  0.10009500  0.32082146  0.46916904  1
  Si  Si5183  1  0.10009500  0.32082146  0.66916904  1
  Si  Si5184  1  0.10009500  0.32082146  0.86916904  1
  Si  Si5185  1  0.10009500  0.19582146  0.09416904  1
  Si  Si5186  1  0.10009500  0.19582146  0.29416904  1
  Si  Si5187  1  0.10009500  0.19582146  0.49416904  1
  Si  Si5188  1  0.10009500  0.19582146  0.69416904  1
  Si  Si5189  1  0.10009500  0.19582146  0.89416904  1
  Si  Si5190  1  0.10009500  0.07082146  0.11916904  1
  Si  Si5191  1  0.10009500  0.07082146  0.31916904  1
  Si  Si5192  1  0.10009500  0.07082146  0.51916904  1
  Si  Si5193  1  0.10009500  0.07082146  0.71916904  1
  Si  Si5194  1  0.10009500  0.07082146  0.91916904  1
  Si  Si5195  1  0.10009500  0.69582146  0.01916904  1
  Si  Si5196  1  0.10009500  0.69582146  0.21916904  1
  Si  Si5197  1  0.10009500  0.69582146  0.41916904  1
  Si  Si5198  1  0.10009500  0.69582146  0.61916904  1
  Si  Si5199  1  0.10009500  0.69582146  0.81916904  1
  Si  Si5200  1  0.10009500  0.57082146  0.04416904  1
  Si  Si5201  1  0.10009500  0.57082146  0.24416904  1
  Si  Si5202  1  0.10009500  0.57082146  0.44416904  1
  Si  Si5203  1  0.10009500  0.57082146  0.64416904  1
  Si  Si5204  1  0.10009500  0.57082146  0.84416904  1
  Si  Si5205  1  0.10009500  0.44582146  0.06916904  1
  Si  Si5206  1  0.10009500  0.44582146  0.26916904  1
  Si  Si5207  1  0.10009500  0.44582146  0.46916904  1
  Si  Si5208  1  0.10009500  0.44582146  0.66916904  1
  Si  Si5209  1  0.10009500  0.44582146  0.86916904  1
  Si  Si5210  1  0.10009500  0.32082146  0.09416904  1
  Si  Si5211  1  0.10009500  0.32082146  0.29416904  1
  Si  Si5212  1  0.10009500  0.32082146  0.49416904  1
  Si  Si5213  1  0.10009500  0.32082146  0.69416904  1
  Si  Si5214  1  0.10009500  0.32082146  0.89416904  1
  Si  Si5215  1  0.10009500  0.19582146  0.11916904  1
  Si  Si5216  1  0.10009500  0.19582146  0.31916904  1
  Si  Si5217  1  0.10009500  0.19582146  0.51916904  1
  Si  Si5218  1  0.10009500  0.19582146  0.71916904  1
  Si  Si5219  1  0.10009500  0.19582146  0.91916904  1
  Si  Si5220  1  0.10009500  0.07082146  0.14416904  1
  Si  Si5221  1  0.10009500  0.07082146  0.34416904  1
  Si  Si5222  1  0.10009500  0.07082146  0.54416904  1
  Si  Si5223  1  0.10009500  0.07082146  0.74416904  1
  Si  Si5224  1  0.10009500  0.07082146  0.94416904  1
  Si  Si5225  1  0.10009500  0.82082146  0.01916904  1
  Si  Si5226  1  0.10009500  0.82082146  0.21916904  1
  Si  Si5227  1  0.10009500  0.82082146  0.41916904  1
  Si  Si5228  1  0.10009500  0.82082146  0.61916904  1
  Si  Si5229  1  0.10009500  0.82082146  0.81916904  1
  Si  Si5230  1  0.10009500  0.69582146  0.04416904  1
  Si  Si5231  1  0.10009500  0.69582146  0.24416904  1
  Si  Si5232  1  0.10009500  0.69582146  0.44416904  1
  Si  Si5233  1  0.10009500  0.69582146  0.64416904  1
  Si  Si5234  1  0.10009500  0.69582146  0.84416904  1
  Si  Si5235  1  0.10009500  0.57082146  0.06916904  1
  Si  Si5236  1  0.10009500  0.57082146  0.26916904  1
  Si  Si5237  1  0.10009500  0.57082146  0.46916904  1
  Si  Si5238  1  0.10009500  0.57082146  0.66916904  1
  Si  Si5239  1  0.10009500  0.57082146  0.86916904  1
  Si  Si5240  1  0.10009500  0.44582146  0.09416904  1
  Si  Si5241  1  0.10009500  0.44582146  0.29416904  1
  Si  Si5242  1  0.10009500  0.44582146  0.49416904  1
  Si  Si5243  1  0.10009500  0.44582146  0.69416904  1
  Si  Si5244  1  0.10009500  0.44582146  0.89416904  1
  Si  Si5245  1  0.10009500  0.32082146  0.11916904  1
  Si  Si5246  1  0.10009500  0.32082146  0.31916904  1
  Si  Si5247  1  0.10009500  0.32082146  0.51916904  1
  Si  Si5248  1  0.10009500  0.32082146  0.71916904  1
  Si  Si5249  1  0.10009500  0.32082146  0.91916904  1
  Si  Si5250  1  0.10009500  0.19582146  0.14416904  1
  Si  Si5251  1  0.10009500  0.19582146  0.34416904  1
  Si  Si5252  1  0.10009500  0.19582146  0.54416904  1
  Si  Si5253  1  0.10009500  0.19582146  0.74416904  1
  Si  Si5254  1  0.10009500  0.19582146  0.94416904  1
  Si  Si5255  1  0.10009500  0.07082146  0.16916904  1
  Si  Si5256  1  0.10009500  0.07082146  0.36916904  1
  Si  Si5257  1  0.10009500  0.07082146  0.56916904  1
  Si  Si5258  1  0.10009500  0.07082146  0.76916904  1
  Si  Si5259  1  0.10009500  0.07082146  0.96916904  1
  Si  Si5260  1  0.10009500  0.94582146  0.01916904  1
  Si  Si5261  1  0.10009500  0.94582146  0.21916904  1
  Si  Si5262  1  0.10009500  0.94582146  0.41916904  1
  Si  Si5263  1  0.10009500  0.94582146  0.61916904  1
  Si  Si5264  1  0.10009500  0.94582146  0.81916904  1
  Si  Si5265  1  0.10009500  0.82082146  0.04416904  1
  Si  Si5266  1  0.10009500  0.82082146  0.24416904  1
  Si  Si5267  1  0.10009500  0.82082146  0.44416904  1
  Si  Si5268  1  0.10009500  0.82082146  0.64416904  1
  Si  Si5269  1  0.10009500  0.82082146  0.84416904  1
  Si  Si5270  1  0.10009500  0.69582146  0.06916904  1
  Si  Si5271  1  0.10009500  0.69582146  0.26916904  1
  Si  Si5272  1  0.10009500  0.69582146  0.46916904  1
  Si  Si5273  1  0.10009500  0.69582146  0.66916904  1
  Si  Si5274  1  0.10009500  0.69582146  0.86916904  1
  Si  Si5275  1  0.10009500  0.57082146  0.09416904  1
  Si  Si5276  1  0.10009500  0.57082146  0.29416904  1
  Si  Si5277  1  0.10009500  0.57082146  0.49416904  1
  Si  Si5278  1  0.10009500  0.57082146  0.69416904  1
  Si  Si5279  1  0.10009500  0.57082146  0.89416904  1
  Si  Si5280  1  0.10009500  0.44582146  0.11916904  1
  Si  Si5281  1  0.10009500  0.44582146  0.31916904  1
  Si  Si5282  1  0.10009500  0.44582146  0.51916904  1
  Si  Si5283  1  0.10009500  0.44582146  0.71916904  1
  Si  Si5284  1  0.10009500  0.44582146  0.91916904  1
  Si  Si5285  1  0.10009500  0.32082146  0.14416904  1
  Si  Si5286  1  0.10009500  0.32082146  0.34416904  1
  Si  Si5287  1  0.10009500  0.32082146  0.54416904  1
  Si  Si5288  1  0.10009500  0.32082146  0.74416904  1
  Si  Si5289  1  0.10009500  0.32082146  0.94416904  1
  Si  Si5290  1  0.10009500  0.19582146  0.16916904  1
  Si  Si5291  1  0.10009500  0.19582146  0.36916904  1
  Si  Si5292  1  0.10009500  0.19582146  0.56916904  1
  Si  Si5293  1  0.10009500  0.19582146  0.76916904  1
  Si  Si5294  1  0.10009500  0.19582146  0.96916904  1
  Si  Si5295  1  0.10009500  0.07082146  0.19416904  1
  Si  Si5296  1  0.10009500  0.07082146  0.39416904  1
  Si  Si5297  1  0.10009500  0.07082146  0.59416904  1
  Si  Si5298  1  0.10009500  0.07082146  0.79416904  1
  Si  Si5299  1  0.10009500  0.07082146  0.99416904  1
  Si  Si5300  1  0.10009500  0.94582146  0.04416904  1
  Si  Si5301  1  0.10009500  0.94582146  0.24416904  1
  Si  Si5302  1  0.10009500  0.94582146  0.44416904  1
  Si  Si5303  1  0.10009500  0.94582146  0.64416904  1
  Si  Si5304  1  0.10009500  0.94582146  0.84416904  1
  Si  Si5305  1  0.10009500  0.82082146  0.06916904  1
  Si  Si5306  1  0.10009500  0.82082146  0.26916904  1
  Si  Si5307  1  0.10009500  0.82082146  0.46916904  1
  Si  Si5308  1  0.10009500  0.82082146  0.66916904  1
  Si  Si5309  1  0.10009500  0.82082146  0.86916904  1
  Si  Si5310  1  0.10009500  0.69582146  0.09416904  1
  Si  Si5311  1  0.10009500  0.69582146  0.29416904  1
  Si  Si5312  1  0.10009500  0.69582146  0.49416904  1
  Si  Si5313  1  0.10009500  0.69582146  0.69416904  1
  Si  Si5314  1  0.10009500  0.69582146  0.89416904  1
  Si  Si5315  1  0.10009500  0.57082146  0.11916904  1
  Si  Si5316  1  0.10009500  0.57082146  0.31916904  1
  Si  Si5317  1  0.10009500  0.57082146  0.51916904  1
  Si  Si5318  1  0.10009500  0.57082146  0.71916904  1
  Si  Si5319  1  0.10009500  0.57082146  0.91916904  1
  Si  Si5320  1  0.10009500  0.44582146  0.14416904  1
  Si  Si5321  1  0.10009500  0.44582146  0.34416904  1
  Si  Si5322  1  0.10009500  0.44582146  0.54416904  1
  Si  Si5323  1  0.10009500  0.44582146  0.74416904  1
  Si  Si5324  1  0.10009500  0.44582146  0.94416904  1
  Si  Si5325  1  0.10009500  0.32082146  0.16916904  1
  Si  Si5326  1  0.10009500  0.32082146  0.36916904  1
  Si  Si5327  1  0.10009500  0.32082146  0.56916904  1
  Si  Si5328  1  0.10009500  0.32082146  0.76916904  1
  Si  Si5329  1  0.10009500  0.32082146  0.96916904  1
  Si  Si5330  1  0.10009500  0.19582146  0.19416904  1
  Si  Si5331  1  0.10009500  0.19582146  0.39416904  1
  Si  Si5332  1  0.10009500  0.19582146  0.59416904  1
  Si  Si5333  1  0.10009500  0.19582146  0.79416904  1
  Si  Si5334  1  0.10009500  0.19582146  0.99416904  1
  Si  Si5335  1  0.10009500  0.94582146  0.06916904  1
  Si  Si5336  1  0.10009500  0.94582146  0.26916904  1
  Si  Si5337  1  0.10009500  0.94582146  0.46916904  1
  Si  Si5338  1  0.10009500  0.94582146  0.66916904  1
  Si  Si5339  1  0.10009500  0.94582146  0.86916904  1
  Si  Si5340  1  0.10009500  0.82082146  0.09416904  1
  Si  Si5341  1  0.10009500  0.82082146  0.29416904  1
  Si  Si5342  1  0.10009500  0.82082146  0.49416904  1
  Si  Si5343  1  0.10009500  0.82082146  0.69416904  1
  Si  Si5344  1  0.10009500  0.82082146  0.89416904  1
  Si  Si5345  1  0.10009500  0.69582146  0.11916904  1
  Si  Si5346  1  0.10009500  0.69582146  0.31916904  1
  Si  Si5347  1  0.10009500  0.69582146  0.51916904  1
  Si  Si5348  1  0.10009500  0.69582146  0.71916904  1
  Si  Si5349  1  0.10009500  0.69582146  0.91916904  1
  Si  Si5350  1  0.10009500  0.57082146  0.14416904  1
  Si  Si5351  1  0.10009500  0.57082146  0.34416904  1
  Si  Si5352  1  0.10009500  0.57082146  0.54416904  1
  Si  Si5353  1  0.10009500  0.57082146  0.74416904  1
  Si  Si5354  1  0.10009500  0.57082146  0.94416904  1
  Si  Si5355  1  0.10009500  0.44582146  0.16916904  1
  Si  Si5356  1  0.10009500  0.44582146  0.36916904  1
  Si  Si5357  1  0.10009500  0.44582146  0.56916904  1
  Si  Si5358  1  0.10009500  0.44582146  0.76916904  1
  Si  Si5359  1  0.10009500  0.44582146  0.96916904  1
  Si  Si5360  1  0.10009500  0.32082146  0.19416904  1
  Si  Si5361  1  0.10009500  0.32082146  0.39416904  1
  Si  Si5362  1  0.10009500  0.32082146  0.59416904  1
  Si  Si5363  1  0.10009500  0.32082146  0.79416904  1
  Si  Si5364  1  0.10009500  0.32082146  0.99416904  1
  Si  Si5365  1  0.10009500  0.94582146  0.09416904  1
  Si  Si5366  1  0.10009500  0.94582146  0.29416904  1
  Si  Si5367  1  0.10009500  0.94582146  0.49416904  1
  Si  Si5368  1  0.10009500  0.94582146  0.69416904  1
  Si  Si5369  1  0.10009500  0.94582146  0.89416904  1
  Si  Si5370  1  0.10009500  0.82082146  0.11916904  1
  Si  Si5371  1  0.10009500  0.82082146  0.31916904  1
  Si  Si5372  1  0.10009500  0.82082146  0.51916904  1
  Si  Si5373  1  0.10009500  0.82082146  0.71916904  1
  Si  Si5374  1  0.10009500  0.82082146  0.91916904  1
  Si  Si5375  1  0.10009500  0.69582146  0.14416904  1
  Si  Si5376  1  0.10009500  0.69582146  0.34416904  1
  Si  Si5377  1  0.10009500  0.69582146  0.54416904  1
  Si  Si5378  1  0.10009500  0.69582146  0.74416904  1
  Si  Si5379  1  0.10009500  0.69582146  0.94416904  1
  Si  Si5380  1  0.10009500  0.57082146  0.16916904  1
  Si  Si5381  1  0.10009500  0.57082146  0.36916904  1
  Si  Si5382  1  0.10009500  0.57082146  0.56916904  1
  Si  Si5383  1  0.10009500  0.57082146  0.76916904  1
  Si  Si5384  1  0.10009500  0.57082146  0.96916904  1
  Si  Si5385  1  0.10009500  0.44582146  0.19416904  1
  Si  Si5386  1  0.10009500  0.44582146  0.39416904  1
  Si  Si5387  1  0.10009500  0.44582146  0.59416904  1
  Si  Si5388  1  0.10009500  0.44582146  0.79416904  1
  Si  Si5389  1  0.10009500  0.44582146  0.99416904  1
  Si  Si5390  1  0.10009500  0.94582146  0.11916904  1
  Si  Si5391  1  0.10009500  0.94582146  0.31916904  1
  Si  Si5392  1  0.10009500  0.94582146  0.51916904  1
  Si  Si5393  1  0.10009500  0.94582146  0.71916904  1
  Si  Si5394  1  0.10009500  0.94582146  0.91916904  1
  Si  Si5395  1  0.10009500  0.82082146  0.14416904  1
  Si  Si5396  1  0.10009500  0.82082146  0.34416904  1
  Si  Si5397  1  0.10009500  0.82082146  0.54416904  1
  Si  Si5398  1  0.10009500  0.82082146  0.74416904  1
  Si  Si5399  1  0.10009500  0.82082146  0.94416904  1
  Si  Si5400  1  0.10009500  0.69582146  0.16916904  1
  Si  Si5401  1  0.10009500  0.69582146  0.36916904  1
  Si  Si5402  1  0.10009500  0.69582146  0.56916904  1
  Si  Si5403  1  0.10009500  0.69582146  0.76916904  1
  Si  Si5404  1  0.10009500  0.69582146  0.96916904  1
  Si  Si5405  1  0.10009500  0.57082146  0.19416904  1
  Si  Si5406  1  0.10009500  0.57082146  0.39416904  1
  Si  Si5407  1  0.10009500  0.57082146  0.59416904  1
  Si  Si5408  1  0.10009500  0.57082146  0.79416904  1
  Si  Si5409  1  0.10009500  0.57082146  0.99416904  1
  Si  Si5410  1  0.10009500  0.94582146  0.14416904  1
  Si  Si5411  1  0.10009500  0.94582146  0.34416904  1
  Si  Si5412  1  0.10009500  0.94582146  0.54416904  1
  Si  Si5413  1  0.10009500  0.94582146  0.74416904  1
  Si  Si5414  1  0.10009500  0.94582146  0.94416904  1
  Si  Si5415  1  0.10009500  0.82082146  0.16916904  1
  Si  Si5416  1  0.10009500  0.82082146  0.36916904  1
  Si  Si5417  1  0.10009500  0.82082146  0.56916904  1
  Si  Si5418  1  0.10009500  0.82082146  0.76916904  1
  Si  Si5419  1  0.10009500  0.82082146  0.96916904  1
  Si  Si5420  1  0.10009500  0.69582146  0.19416904  1
  Si  Si5421  1  0.10009500  0.69582146  0.39416904  1
  Si  Si5422  1  0.10009500  0.69582146  0.59416904  1
  Si  Si5423  1  0.10009500  0.69582146  0.79416904  1
  Si  Si5424  1  0.10009500  0.69582146  0.99416904  1
  Si  Si5425  1  0.10009500  0.94582146  0.16916904  1
  Si  Si5426  1  0.10009500  0.94582146  0.36916904  1
  Si  Si5427  1  0.10009500  0.94582146  0.56916904  1
  Si  Si5428  1  0.10009500  0.94582146  0.76916904  1
  Si  Si5429  1  0.10009500  0.94582146  0.96916904  1
  Si  Si5430  1  0.10009500  0.82082146  0.19416904  1
  Si  Si5431  1  0.10009500  0.82082146  0.39416904  1
  Si  Si5432  1  0.10009500  0.82082146  0.59416904  1
  Si  Si5433  1  0.10009500  0.82082146  0.79416904  1
  Si  Si5434  1  0.10009500  0.82082146  0.99416904  1
  Si  Si5435  1  0.10009500  0.94582146  0.19416904  1
  Si  Si5436  1  0.10009500  0.94582146  0.39416904  1
  Si  Si5437  1  0.10009500  0.94582146  0.59416904  1
  Si  Si5438  1  0.10009500  0.94582146  0.79416904  1
  Si  Si5439  1  0.10009500  0.94582146  0.99416904  1
  Si  Si5440  1  0.19997700  0.10000288  0.00499943  1
  Si  Si5441  1  0.19997700  0.10000288  0.20499943  1
  Si  Si5442  1  0.19997700  0.10000288  0.40499943  1
  Si  Si5443  1  0.19997700  0.10000288  0.60499943  1
  Si  Si5444  1  0.19997700  0.10000288  0.80499942  1
  Si  Si5445  1  0.19997700  0.22500288  0.00499943  1
  Si  Si5446  1  0.19997700  0.22500288  0.20499943  1
  Si  Si5447  1  0.19997700  0.22500288  0.40499943  1
  Si  Si5448  1  0.19997700  0.22500288  0.60499943  1
  Si  Si5449  1  0.19997700  0.22500288  0.80499942  1
  Si  Si5450  1  0.19997700  0.10000288  0.02999942  1
  Si  Si5451  1  0.19997700  0.10000288  0.22999943  1
  Si  Si5452  1  0.19997700  0.10000288  0.42999942  1
  Si  Si5453  1  0.19997700  0.10000288  0.62999943  1
  Si  Si5454  1  0.19997700  0.10000288  0.82999942  1
  Si  Si5455  1  0.19997700  0.35000288  0.00499943  1
  Si  Si5456  1  0.19997700  0.35000288  0.20499943  1
  Si  Si5457  1  0.19997700  0.35000288  0.40499943  1
  Si  Si5458  1  0.19997700  0.35000288  0.60499943  1
  Si  Si5459  1  0.19997700  0.35000288  0.80499942  1
  Si  Si5460  1  0.19997700  0.22500288  0.02999942  1
  Si  Si5461  1  0.19997700  0.22500288  0.22999943  1
  Si  Si5462  1  0.19997700  0.22500288  0.42999942  1
  Si  Si5463  1  0.19997700  0.22500288  0.62999943  1
  Si  Si5464  1  0.19997700  0.22500288  0.82999942  1
  Si  Si5465  1  0.19997700  0.10000288  0.05499942  1
  Si  Si5466  1  0.19997700  0.10000288  0.25499943  1
  Si  Si5467  1  0.19997700  0.10000288  0.45499943  1
  Si  Si5468  1  0.19997700  0.10000288  0.65499942  1
  Si  Si5469  1  0.19997700  0.10000288  0.85499942  1
  Si  Si5470  1  0.19997700  0.47500288  0.00499943  1
  Si  Si5471  1  0.19997700  0.47500288  0.20499943  1
  Si  Si5472  1  0.19997700  0.47500288  0.40499943  1
  Si  Si5473  1  0.19997700  0.47500288  0.60499943  1
  Si  Si5474  1  0.19997700  0.47500288  0.80499942  1
  Si  Si5475  1  0.19997700  0.35000288  0.02999942  1
  Si  Si5476  1  0.19997700  0.35000288  0.22999943  1
  Si  Si5477  1  0.19997700  0.35000288  0.42999942  1
  Si  Si5478  1  0.19997700  0.35000288  0.62999943  1
  Si  Si5479  1  0.19997700  0.35000288  0.82999942  1
  Si  Si5480  1  0.19997700  0.22500288  0.05499942  1
  Si  Si5481  1  0.19997700  0.22500288  0.25499943  1
  Si  Si5482  1  0.19997700  0.22500288  0.45499943  1
  Si  Si5483  1  0.19997700  0.22500288  0.65499942  1
  Si  Si5484  1  0.19997700  0.22500288  0.85499942  1
  Si  Si5485  1  0.19997700  0.10000288  0.07999942  1
  Si  Si5486  1  0.19997700  0.10000288  0.27999943  1
  Si  Si5487  1  0.19997700  0.10000288  0.47999942  1
  Si  Si5488  1  0.19997700  0.10000288  0.67999942  1
  Si  Si5489  1  0.19997700  0.10000288  0.87999942  1
  Si  Si5490  1  0.19997700  0.60000288  0.00499943  1
  Si  Si5491  1  0.19997700  0.60000288  0.20499943  1
  Si  Si5492  1  0.19997700  0.60000288  0.40499943  1
  Si  Si5493  1  0.19997700  0.60000288  0.60499943  1
  Si  Si5494  1  0.19997700  0.60000288  0.80499942  1
  Si  Si5495  1  0.19997700  0.47500288  0.02999942  1
  Si  Si5496  1  0.19997700  0.47500288  0.22999943  1
  Si  Si5497  1  0.19997700  0.47500288  0.42999942  1
  Si  Si5498  1  0.19997700  0.47500288  0.62999943  1
  Si  Si5499  1  0.19997700  0.47500288  0.82999942  1
  Si  Si5500  1  0.19997700  0.35000288  0.05499942  1
  Si  Si5501  1  0.19997700  0.35000288  0.25499943  1
  Si  Si5502  1  0.19997700  0.35000288  0.45499943  1
  Si  Si5503  1  0.19997700  0.35000288  0.65499942  1
  Si  Si5504  1  0.19997700  0.35000288  0.85499942  1
  Si  Si5505  1  0.19997700  0.22500288  0.07999942  1
  Si  Si5506  1  0.19997700  0.22500288  0.27999943  1
  Si  Si5507  1  0.19997700  0.22500288  0.47999942  1
  Si  Si5508  1  0.19997700  0.22500288  0.67999942  1
  Si  Si5509  1  0.19997700  0.22500288  0.87999942  1
  Si  Si5510  1  0.19997700  0.10000288  0.10499942  1
  Si  Si5511  1  0.19997700  0.10000288  0.30499942  1
  Si  Si5512  1  0.19997700  0.10000288  0.50499943  1
  Si  Si5513  1  0.19997700  0.10000288  0.70499943  1
  Si  Si5514  1  0.19997700  0.10000288  0.90499942  1
  Si  Si5515  1  0.19997700  0.72500288  0.00499943  1
  Si  Si5516  1  0.19997700  0.72500288  0.20499943  1
  Si  Si5517  1  0.19997700  0.72500288  0.40499943  1
  Si  Si5518  1  0.19997700  0.72500288  0.60499943  1
  Si  Si5519  1  0.19997700  0.72500288  0.80499942  1
  Si  Si5520  1  0.19997700  0.60000288  0.02999942  1
  Si  Si5521  1  0.19997700  0.60000288  0.22999943  1
  Si  Si5522  1  0.19997700  0.60000288  0.42999942  1
  Si  Si5523  1  0.19997700  0.60000288  0.62999943  1
  Si  Si5524  1  0.19997700  0.60000288  0.82999942  1
  Si  Si5525  1  0.19997700  0.47500288  0.05499942  1
  Si  Si5526  1  0.19997700  0.47500288  0.25499943  1
  Si  Si5527  1  0.19997700  0.47500288  0.45499943  1
  Si  Si5528  1  0.19997700  0.47500288  0.65499942  1
  Si  Si5529  1  0.19997700  0.47500288  0.85499942  1
  Si  Si5530  1  0.19997700  0.35000288  0.07999942  1
  Si  Si5531  1  0.19997700  0.35000288  0.27999943  1
  Si  Si5532  1  0.19997700  0.35000288  0.47999942  1
  Si  Si5533  1  0.19997700  0.35000288  0.67999942  1
  Si  Si5534  1  0.19997700  0.35000288  0.87999942  1
  Si  Si5535  1  0.19997700  0.22500288  0.10499942  1
  Si  Si5536  1  0.19997700  0.22500288  0.30499942  1
  Si  Si5537  1  0.19997700  0.22500288  0.50499943  1
  Si  Si5538  1  0.19997700  0.22500288  0.70499943  1
  Si  Si5539  1  0.19997700  0.22500288  0.90499942  1
  Si  Si5540  1  0.19997700  0.10000288  0.12999943  1
  Si  Si5541  1  0.19997700  0.10000288  0.32999943  1
  Si  Si5542  1  0.19997700  0.10000288  0.52999942  1
  Si  Si5543  1  0.19997700  0.10000288  0.72999943  1
  Si  Si5544  1  0.19997700  0.10000288  0.92999942  1
  Si  Si5545  1  0.19997700  0.85000288  0.00499943  1
  Si  Si5546  1  0.19997700  0.85000288  0.20499943  1
  Si  Si5547  1  0.19997700  0.85000288  0.40499943  1
  Si  Si5548  1  0.19997700  0.85000288  0.60499943  1
  Si  Si5549  1  0.19997700  0.85000288  0.80499942  1
  Si  Si5550  1  0.19997700  0.72500288  0.02999942  1
  Si  Si5551  1  0.19997700  0.72500288  0.22999943  1
  Si  Si5552  1  0.19997700  0.72500288  0.42999942  1
  Si  Si5553  1  0.19997700  0.72500288  0.62999943  1
  Si  Si5554  1  0.19997700  0.72500288  0.82999942  1
  Si  Si5555  1  0.19997700  0.60000288  0.05499942  1
  Si  Si5556  1  0.19997700  0.60000288  0.25499943  1
  Si  Si5557  1  0.19997700  0.60000288  0.45499943  1
  Si  Si5558  1  0.19997700  0.60000288  0.65499942  1
  Si  Si5559  1  0.19997700  0.60000288  0.85499942  1
  Si  Si5560  1  0.19997700  0.47500288  0.07999942  1
  Si  Si5561  1  0.19997700  0.47500288  0.27999943  1
  Si  Si5562  1  0.19997700  0.47500288  0.47999942  1
  Si  Si5563  1  0.19997700  0.47500288  0.67999942  1
  Si  Si5564  1  0.19997700  0.47500288  0.87999942  1
  Si  Si5565  1  0.19997700  0.35000288  0.10499942  1
  Si  Si5566  1  0.19997700  0.35000288  0.30499942  1
  Si  Si5567  1  0.19997700  0.35000288  0.50499943  1
  Si  Si5568  1  0.19997700  0.35000288  0.70499943  1
  Si  Si5569  1  0.19997700  0.35000288  0.90499942  1
  Si  Si5570  1  0.19997700  0.22500288  0.12999943  1
  Si  Si5571  1  0.19997700  0.22500288  0.32999943  1
  Si  Si5572  1  0.19997700  0.22500288  0.52999942  1
  Si  Si5573  1  0.19997700  0.22500288  0.72999943  1
  Si  Si5574  1  0.19997700  0.22500288  0.92999942  1
  Si  Si5575  1  0.19997700  0.10000288  0.15499942  1
  Si  Si5576  1  0.19997700  0.10000288  0.35499942  1
  Si  Si5577  1  0.19997700  0.10000288  0.55499942  1
  Si  Si5578  1  0.19997700  0.10000288  0.75499943  1
  Si  Si5579  1  0.19997700  0.10000288  0.95499943  1
  Si  Si5580  1  0.19997700  0.97500288  0.00499943  1
  Si  Si5581  1  0.19997700  0.97500288  0.20499943  1
  Si  Si5582  1  0.19997700  0.97500288  0.40499943  1
  Si  Si5583  1  0.19997700  0.97500288  0.60499943  1
  Si  Si5584  1  0.19997700  0.97500288  0.80499942  1
  Si  Si5585  1  0.19997700  0.85000288  0.02999942  1
  Si  Si5586  1  0.19997700  0.85000288  0.22999943  1
  Si  Si5587  1  0.19997700  0.85000288  0.42999942  1
  Si  Si5588  1  0.19997700  0.85000288  0.62999943  1
  Si  Si5589  1  0.19997700  0.85000288  0.82999942  1
  Si  Si5590  1  0.19997700  0.72500288  0.05499942  1
  Si  Si5591  1  0.19997700  0.72500288  0.25499943  1
  Si  Si5592  1  0.19997700  0.72500288  0.45499943  1
  Si  Si5593  1  0.19997700  0.72500288  0.65499942  1
  Si  Si5594  1  0.19997700  0.72500288  0.85499942  1
  Si  Si5595  1  0.19997700  0.60000288  0.07999942  1
  Si  Si5596  1  0.19997700  0.60000288  0.27999943  1
  Si  Si5597  1  0.19997700  0.60000288  0.47999942  1
  Si  Si5598  1  0.19997700  0.60000288  0.67999942  1
  Si  Si5599  1  0.19997700  0.60000288  0.87999942  1
  Si  Si5600  1  0.19997700  0.47500288  0.10499942  1
  Si  Si5601  1  0.19997700  0.47500288  0.30499942  1
  Si  Si5602  1  0.19997700  0.47500288  0.50499943  1
  Si  Si5603  1  0.19997700  0.47500288  0.70499943  1
  Si  Si5604  1  0.19997700  0.47500288  0.90499942  1
  Si  Si5605  1  0.19997700  0.35000288  0.12999943  1
  Si  Si5606  1  0.19997700  0.35000288  0.32999943  1
  Si  Si5607  1  0.19997700  0.35000288  0.52999942  1
  Si  Si5608  1  0.19997700  0.35000288  0.72999943  1
  Si  Si5609  1  0.19997700  0.35000288  0.92999942  1
  Si  Si5610  1  0.19997700  0.22500288  0.15499942  1
  Si  Si5611  1  0.19997700  0.22500288  0.35499942  1
  Si  Si5612  1  0.19997700  0.22500288  0.55499942  1
  Si  Si5613  1  0.19997700  0.22500288  0.75499943  1
  Si  Si5614  1  0.19997700  0.22500288  0.95499942  1
  Si  Si5615  1  0.19997700  0.10000288  0.17999942  1
  Si  Si5616  1  0.19997700  0.10000288  0.37999943  1
  Si  Si5617  1  0.19997700  0.10000288  0.57999943  1
  Si  Si5618  1  0.19997700  0.10000288  0.77999942  1
  Si  Si5619  1  0.19997700  0.10000288  0.97999943  1
  Si  Si5620  1  0.19997700  0.97500288  0.02999942  1
  Si  Si5621  1  0.19997700  0.97500288  0.22999943  1
  Si  Si5622  1  0.19997700  0.97500288  0.42999942  1
  Si  Si5623  1  0.19997700  0.97500288  0.62999943  1
  Si  Si5624  1  0.19997700  0.97500288  0.82999942  1
  Si  Si5625  1  0.19997700  0.85000288  0.05499942  1
  Si  Si5626  1  0.19997700  0.85000288  0.25499942  1
  Si  Si5627  1  0.19997700  0.85000288  0.45499943  1
  Si  Si5628  1  0.19997700  0.85000288  0.65499942  1
  Si  Si5629  1  0.19997700  0.85000288  0.85499942  1
  Si  Si5630  1  0.19997700  0.72500288  0.07999942  1
  Si  Si5631  1  0.19997700  0.72500288  0.27999943  1
  Si  Si5632  1  0.19997700  0.72500288  0.47999942  1
  Si  Si5633  1  0.19997700  0.72500288  0.67999942  1
  Si  Si5634  1  0.19997700  0.72500288  0.87999942  1
  Si  Si5635  1  0.19997700  0.60000288  0.10499942  1
  Si  Si5636  1  0.19997700  0.60000288  0.30499942  1
  Si  Si5637  1  0.19997700  0.60000288  0.50499943  1
  Si  Si5638  1  0.19997700  0.60000288  0.70499943  1
  Si  Si5639  1  0.19997700  0.60000288  0.90499942  1
  Si  Si5640  1  0.19997700  0.47500288  0.12999943  1
  Si  Si5641  1  0.19997700  0.47500288  0.32999943  1
  Si  Si5642  1  0.19997700  0.47500288  0.52999942  1
  Si  Si5643  1  0.19997700  0.47500288  0.72999943  1
  Si  Si5644  1  0.19997700  0.47500288  0.92999942  1
  Si  Si5645  1  0.19997700  0.35000288  0.15499942  1
  Si  Si5646  1  0.19997700  0.35000288  0.35499942  1
  Si  Si5647  1  0.19997700  0.35000288  0.55499942  1
  Si  Si5648  1  0.19997700  0.35000288  0.75499943  1
  Si  Si5649  1  0.19997700  0.35000288  0.95499942  1
  Si  Si5650  1  0.19997700  0.22500288  0.17999942  1
  Si  Si5651  1  0.19997700  0.22500288  0.37999943  1
  Si  Si5652  1  0.19997700  0.22500288  0.57999943  1
  Si  Si5653  1  0.19997700  0.22500288  0.77999942  1
  Si  Si5654  1  0.19997700  0.22500288  0.97999943  1
  Si  Si5655  1  0.19997700  0.97500288  0.05499942  1
  Si  Si5656  1  0.19997700  0.97500288  0.25499942  1
  Si  Si5657  1  0.19997700  0.97500288  0.45499943  1
  Si  Si5658  1  0.19997700  0.97500288  0.65499942  1
  Si  Si5659  1  0.19997700  0.97500288  0.85499942  1
  Si  Si5660  1  0.19997700  0.85000288  0.07999942  1
  Si  Si5661  1  0.19997700  0.85000288  0.27999943  1
  Si  Si5662  1  0.19997700  0.85000288  0.47999942  1
  Si  Si5663  1  0.19997700  0.85000288  0.67999942  1
  Si  Si5664  1  0.19997700  0.85000288  0.87999942  1
  Si  Si5665  1  0.19997700  0.72500288  0.10499942  1
  Si  Si5666  1  0.19997700  0.72500288  0.30499942  1
  Si  Si5667  1  0.19997700  0.72500288  0.50499943  1
  Si  Si5668  1  0.19997700  0.72500288  0.70499943  1
  Si  Si5669  1  0.19997700  0.72500288  0.90499942  1
  Si  Si5670  1  0.19997700  0.60000288  0.12999943  1
  Si  Si5671  1  0.19997700  0.60000288  0.32999943  1
  Si  Si5672  1  0.19997700  0.60000288  0.52999942  1
  Si  Si5673  1  0.19997700  0.60000288  0.72999943  1
  Si  Si5674  1  0.19997700  0.60000288  0.92999942  1
  Si  Si5675  1  0.19997700  0.47500288  0.15499942  1
  Si  Si5676  1  0.19997700  0.47500288  0.35499942  1
  Si  Si5677  1  0.19997700  0.47500288  0.55499942  1
  Si  Si5678  1  0.19997700  0.47500288  0.75499943  1
  Si  Si5679  1  0.19997700  0.47500288  0.95499942  1
  Si  Si5680  1  0.19997700  0.35000288  0.17999942  1
  Si  Si5681  1  0.19997700  0.35000288  0.37999943  1
  Si  Si5682  1  0.19997700  0.35000288  0.57999943  1
  Si  Si5683  1  0.19997700  0.35000288  0.77999942  1
  Si  Si5684  1  0.19997700  0.35000288  0.97999942  1
  Si  Si5685  1  0.19997700  0.97500288  0.07999942  1
  Si  Si5686  1  0.19997700  0.97500288  0.27999943  1
  Si  Si5687  1  0.19997700  0.97500288  0.47999942  1
  Si  Si5688  1  0.19997700  0.97500288  0.67999942  1
  Si  Si5689  1  0.19997700  0.97500288  0.87999942  1
  Si  Si5690  1  0.19997700  0.85000288  0.10499942  1
  Si  Si5691  1  0.19997700  0.85000288  0.30499942  1
  Si  Si5692  1  0.19997700  0.85000288  0.50499943  1
  Si  Si5693  1  0.19997700  0.85000288  0.70499943  1
  Si  Si5694  1  0.19997700  0.85000288  0.90499942  1
  Si  Si5695  1  0.19997700  0.72500288  0.12999943  1
  Si  Si5696  1  0.19997700  0.72500288  0.32999943  1
  Si  Si5697  1  0.19997700  0.72500288  0.52999942  1
  Si  Si5698  1  0.19997700  0.72500288  0.72999943  1
  Si  Si5699  1  0.19997700  0.72500288  0.92999942  1
  Si  Si5700  1  0.19997700  0.60000288  0.15499942  1
  Si  Si5701  1  0.19997700  0.60000288  0.35499942  1
  Si  Si5702  1  0.19997700  0.60000288  0.55499942  1
  Si  Si5703  1  0.19997700  0.60000288  0.75499943  1
  Si  Si5704  1  0.19997700  0.60000288  0.95499942  1
  Si  Si5705  1  0.19997700  0.47500288  0.17999942  1
  Si  Si5706  1  0.19997700  0.47500288  0.37999943  1
  Si  Si5707  1  0.19997700  0.47500288  0.57999943  1
  Si  Si5708  1  0.19997700  0.47500288  0.77999942  1
  Si  Si5709  1  0.19997700  0.47500288  0.97999942  1
  Si  Si5710  1  0.19997700  0.97500288  0.10499942  1
  Si  Si5711  1  0.19997700  0.97500288  0.30499942  1
  Si  Si5712  1  0.19997700  0.97500288  0.50499943  1
  Si  Si5713  1  0.19997700  0.97500288  0.70499943  1
  Si  Si5714  1  0.19997700  0.97500288  0.90499942  1
  Si  Si5715  1  0.19997700  0.85000288  0.12999943  1
  Si  Si5716  1  0.19997700  0.85000288  0.32999943  1
  Si  Si5717  1  0.19997700  0.85000288  0.52999942  1
  Si  Si5718  1  0.19997700  0.85000288  0.72999943  1
  Si  Si5719  1  0.19997700  0.85000288  0.92999942  1
  Si  Si5720  1  0.19997700  0.72500288  0.15499942  1
  Si  Si5721  1  0.19997700  0.72500288  0.35499942  1
  Si  Si5722  1  0.19997700  0.72500288  0.55499942  1
  Si  Si5723  1  0.19997700  0.72500288  0.75499943  1
  Si  Si5724  1  0.19997700  0.72500288  0.95499942  1
  Si  Si5725  1  0.19997700  0.60000288  0.17999942  1
  Si  Si5726  1  0.19997700  0.60000288  0.37999943  1
  Si  Si5727  1  0.19997700  0.60000288  0.57999943  1
  Si  Si5728  1  0.19997700  0.60000288  0.77999942  1
  Si  Si5729  1  0.19997700  0.60000288  0.97999942  1
  Si  Si5730  1  0.19997700  0.97500288  0.12999943  1
  Si  Si5731  1  0.19997700  0.97500288  0.32999943  1
  Si  Si5732  1  0.19997700  0.97500288  0.52999942  1
  Si  Si5733  1  0.19997700  0.97500288  0.72999943  1
  Si  Si5734  1  0.19997700  0.97500288  0.92999942  1
  Si  Si5735  1  0.19997700  0.85000288  0.15499942  1
  Si  Si5736  1  0.19997700  0.85000288  0.35499942  1
  Si  Si5737  1  0.19997700  0.85000288  0.55499942  1
  Si  Si5738  1  0.19997700  0.85000288  0.75499943  1
  Si  Si5739  1  0.19997700  0.85000288  0.95499942  1
  Si  Si5740  1  0.19997700  0.72500288  0.17999942  1
  Si  Si5741  1  0.19997700  0.72500288  0.37999943  1
  Si  Si5742  1  0.19997700  0.72500288  0.57999943  1
  Si  Si5743  1  0.19997700  0.72500288  0.77999942  1
  Si  Si5744  1  0.19997700  0.72500288  0.97999942  1
  Si  Si5745  1  0.19997700  0.97500288  0.15499942  1
  Si  Si5746  1  0.19997700  0.97500288  0.35499942  1
  Si  Si5747  1  0.19997700  0.97500288  0.55499942  1
  Si  Si5748  1  0.19997700  0.97500288  0.75499943  1
  Si  Si5749  1  0.19997700  0.97500288  0.95499942  1
  Si  Si5750  1  0.19997700  0.85000288  0.17999942  1
  Si  Si5751  1  0.19997700  0.85000288  0.37999943  1
  Si  Si5752  1  0.19997700  0.85000288  0.57999943  1
  Si  Si5753  1  0.19997700  0.85000288  0.77999942  1
  Si  Si5754  1  0.19997700  0.85000288  0.97999942  1
  Si  Si5755  1  0.19997700  0.97500288  0.17999942  1
  Si  Si5756  1  0.19997700  0.97500288  0.37999943  1
  Si  Si5757  1  0.19997700  0.97500288  0.57999943  1
  Si  Si5758  1  0.19997700  0.97500288  0.77999942  1
  Si  Si5759  1  0.19997700  0.97500288  0.97999942  1
  Si  Si5760  1  0.89998400  0.09583533  0.01416627  1
  Si  Si5761  1  0.89998400  0.09583533  0.21416627  1
  Si  Si5762  1  0.89998400  0.09583533  0.41416627  1
  Si  Si5763  1  0.89998400  0.09583533  0.61416627  1
  Si  Si5764  1  0.89998400  0.09583533  0.81416627  1
  Si  Si5765  1  0.89998400  0.22083533  0.01416627  1
  Si  Si5766  1  0.89998400  0.22083533  0.21416627  1
  Si  Si5767  1  0.89998400  0.22083533  0.41416627  1
  Si  Si5768  1  0.89998400  0.22083533  0.61416627  1
  Si  Si5769  1  0.89998400  0.22083533  0.81416627  1
  Si  Si5770  1  0.89998400  0.09583533  0.03916627  1
  Si  Si5771  1  0.89998400  0.09583533  0.23916627  1
  Si  Si5772  1  0.89998400  0.09583533  0.43916627  1
  Si  Si5773  1  0.89998400  0.09583533  0.63916627  1
  Si  Si5774  1  0.89998400  0.09583533  0.83916627  1
  Si  Si5775  1  0.89998400  0.34583533  0.01416627  1
  Si  Si5776  1  0.89998400  0.34583533  0.21416627  1
  Si  Si5777  1  0.89998400  0.34583533  0.41416627  1
  Si  Si5778  1  0.89998400  0.34583533  0.61416627  1
  Si  Si5779  1  0.89998400  0.34583533  0.81416627  1
  Si  Si5780  1  0.89998400  0.22083533  0.03916627  1
  Si  Si5781  1  0.89998400  0.22083533  0.23916627  1
  Si  Si5782  1  0.89998400  0.22083533  0.43916627  1
  Si  Si5783  1  0.89998400  0.22083533  0.63916627  1
  Si  Si5784  1  0.89998400  0.22083533  0.83916627  1
  Si  Si5785  1  0.89998400  0.09583533  0.06416627  1
  Si  Si5786  1  0.89998400  0.09583533  0.26416627  1
  Si  Si5787  1  0.89998400  0.09583533  0.46416627  1
  Si  Si5788  1  0.89998400  0.09583533  0.66416627  1
  Si  Si5789  1  0.89998400  0.09583533  0.86416627  1
  Si  Si5790  1  0.89998400  0.47083533  0.01416627  1
  Si  Si5791  1  0.89998400  0.47083533  0.21416627  1
  Si  Si5792  1  0.89998400  0.47083533  0.41416627  1
  Si  Si5793  1  0.89998400  0.47083533  0.61416627  1
  Si  Si5794  1  0.89998400  0.47083533  0.81416627  1
  Si  Si5795  1  0.89998400  0.34583533  0.03916627  1
  Si  Si5796  1  0.89998400  0.34583533  0.23916627  1
  Si  Si5797  1  0.89998400  0.34583533  0.43916627  1
  Si  Si5798  1  0.89998400  0.34583533  0.63916627  1
  Si  Si5799  1  0.89998400  0.34583533  0.83916627  1
  Si  Si5800  1  0.89998400  0.22083533  0.06416627  1
  Si  Si5801  1  0.89998400  0.22083533  0.26416627  1
  Si  Si5802  1  0.89998400  0.22083533  0.46416627  1
  Si  Si5803  1  0.89998400  0.22083533  0.66416627  1
  Si  Si5804  1  0.89998400  0.22083533  0.86416627  1
  Si  Si5805  1  0.89998400  0.09583533  0.08916627  1
  Si  Si5806  1  0.89998400  0.09583533  0.28916627  1
  Si  Si5807  1  0.89998400  0.09583533  0.48916627  1
  Si  Si5808  1  0.89998400  0.09583533  0.68916627  1
  Si  Si5809  1  0.89998400  0.09583533  0.88916627  1
  Si  Si5810  1  0.89998400  0.59583533  0.01416627  1
  Si  Si5811  1  0.89998400  0.59583533  0.21416627  1
  Si  Si5812  1  0.89998400  0.59583533  0.41416627  1
  Si  Si5813  1  0.89998400  0.59583533  0.61416627  1
  Si  Si5814  1  0.89998400  0.59583533  0.81416627  1
  Si  Si5815  1  0.89998400  0.47083533  0.03916627  1
  Si  Si5816  1  0.89998400  0.47083533  0.23916627  1
  Si  Si5817  1  0.89998400  0.47083533  0.43916627  1
  Si  Si5818  1  0.89998400  0.47083533  0.63916627  1
  Si  Si5819  1  0.89998400  0.47083533  0.83916627  1
  Si  Si5820  1  0.89998400  0.34583533  0.06416627  1
  Si  Si5821  1  0.89998400  0.34583533  0.26416627  1
  Si  Si5822  1  0.89998400  0.34583533  0.46416627  1
  Si  Si5823  1  0.89998400  0.34583533  0.66416627  1
  Si  Si5824  1  0.89998400  0.34583533  0.86416627  1
  Si  Si5825  1  0.89998400  0.22083533  0.08916627  1
  Si  Si5826  1  0.89998400  0.22083533  0.28916627  1
  Si  Si5827  1  0.89998400  0.22083533  0.48916627  1
  Si  Si5828  1  0.89998400  0.22083533  0.68916627  1
  Si  Si5829  1  0.89998400  0.22083533  0.88916627  1
  Si  Si5830  1  0.89998400  0.09583533  0.11416627  1
  Si  Si5831  1  0.89998400  0.09583533  0.31416627  1
  Si  Si5832  1  0.89998400  0.09583533  0.51416627  1
  Si  Si5833  1  0.89998400  0.09583533  0.71416627  1
  Si  Si5834  1  0.89998400  0.09583533  0.91416627  1
  Si  Si5835  1  0.89998400  0.72083533  0.01416627  1
  Si  Si5836  1  0.89998400  0.72083533  0.21416627  1
  Si  Si5837  1  0.89998400  0.72083533  0.41416627  1
  Si  Si5838  1  0.89998400  0.72083533  0.61416627  1
  Si  Si5839  1  0.89998400  0.72083533  0.81416627  1
  Si  Si5840  1  0.89998400  0.59583533  0.03916627  1
  Si  Si5841  1  0.89998400  0.59583533  0.23916627  1
  Si  Si5842  1  0.89998400  0.59583533  0.43916627  1
  Si  Si5843  1  0.89998400  0.59583533  0.63916627  1
  Si  Si5844  1  0.89998400  0.59583533  0.83916627  1
  Si  Si5845  1  0.89998400  0.47083533  0.06416627  1
  Si  Si5846  1  0.89998400  0.47083533  0.26416627  1
  Si  Si5847  1  0.89998400  0.47083533  0.46416627  1
  Si  Si5848  1  0.89998400  0.47083533  0.66416627  1
  Si  Si5849  1  0.89998400  0.47083533  0.86416627  1
  Si  Si5850  1  0.89998400  0.34583533  0.08916627  1
  Si  Si5851  1  0.89998400  0.34583533  0.28916627  1
  Si  Si5852  1  0.89998400  0.34583533  0.48916627  1
  Si  Si5853  1  0.89998400  0.34583533  0.68916627  1
  Si  Si5854  1  0.89998400  0.34583533  0.88916627  1
  Si  Si5855  1  0.89998400  0.22083533  0.11416627  1
  Si  Si5856  1  0.89998400  0.22083533  0.31416627  1
  Si  Si5857  1  0.89998400  0.22083533  0.51416627  1
  Si  Si5858  1  0.89998400  0.22083533  0.71416627  1
  Si  Si5859  1  0.89998400  0.22083533  0.91416627  1
  Si  Si5860  1  0.89998400  0.09583533  0.13916627  1
  Si  Si5861  1  0.89998400  0.09583533  0.33916627  1
  Si  Si5862  1  0.89998400  0.09583533  0.53916627  1
  Si  Si5863  1  0.89998400  0.09583533  0.73916627  1
  Si  Si5864  1  0.89998400  0.09583533  0.93916627  1
  Si  Si5865  1  0.89998400  0.84583533  0.01416627  1
  Si  Si5866  1  0.89998400  0.84583533  0.21416627  1
  Si  Si5867  1  0.89998400  0.84583533  0.41416627  1
  Si  Si5868  1  0.89998400  0.84583533  0.61416627  1
  Si  Si5869  1  0.89998400  0.84583533  0.81416627  1
  Si  Si5870  1  0.89998400  0.72083533  0.03916627  1
  Si  Si5871  1  0.89998400  0.72083533  0.23916627  1
  Si  Si5872  1  0.89998400  0.72083533  0.43916627  1
  Si  Si5873  1  0.89998400  0.72083533  0.63916627  1
  Si  Si5874  1  0.89998400  0.72083533  0.83916627  1
  Si  Si5875  1  0.89998400  0.59583533  0.06416627  1
  Si  Si5876  1  0.89998400  0.59583533  0.26416627  1
  Si  Si5877  1  0.89998400  0.59583533  0.46416627  1
  Si  Si5878  1  0.89998400  0.59583533  0.66416627  1
  Si  Si5879  1  0.89998400  0.59583533  0.86416627  1
  Si  Si5880  1  0.89998400  0.47083533  0.08916627  1
  Si  Si5881  1  0.89998400  0.47083533  0.28916627  1
  Si  Si5882  1  0.89998400  0.47083533  0.48916627  1
  Si  Si5883  1  0.89998400  0.47083533  0.68916627  1
  Si  Si5884  1  0.89998400  0.47083533  0.88916627  1
  Si  Si5885  1  0.89998400  0.34583533  0.11416627  1
  Si  Si5886  1  0.89998400  0.34583533  0.31416627  1
  Si  Si5887  1  0.89998400  0.34583533  0.51416627  1
  Si  Si5888  1  0.89998400  0.34583533  0.71416627  1
  Si  Si5889  1  0.89998400  0.34583533  0.91416627  1
  Si  Si5890  1  0.89998400  0.22083533  0.13916627  1
  Si  Si5891  1  0.89998400  0.22083533  0.33916627  1
  Si  Si5892  1  0.89998400  0.22083533  0.53916627  1
  Si  Si5893  1  0.89998400  0.22083533  0.73916627  1
  Si  Si5894  1  0.89998400  0.22083533  0.93916627  1
  Si  Si5895  1  0.89998400  0.09583533  0.16416627  1
  Si  Si5896  1  0.89998400  0.09583533  0.36416627  1
  Si  Si5897  1  0.89998400  0.09583533  0.56416627  1
  Si  Si5898  1  0.89998400  0.09583533  0.76416627  1
  Si  Si5899  1  0.89998400  0.09583533  0.96416627  1
  Si  Si5900  1  0.89998400  0.97083533  0.01416627  1
  Si  Si5901  1  0.89998400  0.97083533  0.21416627  1
  Si  Si5902  1  0.89998400  0.97083533  0.41416627  1
  Si  Si5903  1  0.89998400  0.97083533  0.61416627  1
  Si  Si5904  1  0.89998400  0.97083533  0.81416627  1
  Si  Si5905  1  0.89998400  0.84583533  0.03916627  1
  Si  Si5906  1  0.89998400  0.84583533  0.23916627  1
  Si  Si5907  1  0.89998400  0.84583533  0.43916627  1
  Si  Si5908  1  0.89998400  0.84583533  0.63916627  1
  Si  Si5909  1  0.89998400  0.84583533  0.83916627  1
  Si  Si5910  1  0.89998400  0.72083533  0.06416627  1
  Si  Si5911  1  0.89998400  0.72083533  0.26416627  1
  Si  Si5912  1  0.89998400  0.72083533  0.46416627  1
  Si  Si5913  1  0.89998400  0.72083533  0.66416627  1
  Si  Si5914  1  0.89998400  0.72083533  0.86416627  1
  Si  Si5915  1  0.89998400  0.59583533  0.08916627  1
  Si  Si5916  1  0.89998400  0.59583533  0.28916627  1
  Si  Si5917  1  0.89998400  0.59583533  0.48916627  1
  Si  Si5918  1  0.89998400  0.59583533  0.68916627  1
  Si  Si5919  1  0.89998400  0.59583533  0.88916627  1
  Si  Si5920  1  0.89998400  0.47083533  0.11416627  1
  Si  Si5921  1  0.89998400  0.47083533  0.31416627  1
  Si  Si5922  1  0.89998400  0.47083533  0.51416627  1
  Si  Si5923  1  0.89998400  0.47083533  0.71416627  1
  Si  Si5924  1  0.89998400  0.47083533  0.91416627  1
  Si  Si5925  1  0.89998400  0.34583533  0.13916627  1
  Si  Si5926  1  0.89998400  0.34583533  0.33916627  1
  Si  Si5927  1  0.89998400  0.34583533  0.53916627  1
  Si  Si5928  1  0.89998400  0.34583533  0.73916627  1
  Si  Si5929  1  0.89998400  0.34583533  0.93916627  1
  Si  Si5930  1  0.89998400  0.22083533  0.16416627  1
  Si  Si5931  1  0.89998400  0.22083533  0.36416627  1
  Si  Si5932  1  0.89998400  0.22083533  0.56416627  1
  Si  Si5933  1  0.89998400  0.22083533  0.76416627  1
  Si  Si5934  1  0.89998400  0.22083533  0.96416627  1
  Si  Si5935  1  0.89998400  0.09583533  0.18916627  1
  Si  Si5936  1  0.89998400  0.09583533  0.38916627  1
  Si  Si5937  1  0.89998400  0.09583533  0.58916627  1
  Si  Si5938  1  0.89998400  0.09583533  0.78916627  1
  Si  Si5939  1  0.89998400  0.09583533  0.98916627  1
  Si  Si5940  1  0.89998400  0.97083533  0.03916627  1
  Si  Si5941  1  0.89998400  0.97083533  0.23916627  1
  Si  Si5942  1  0.89998400  0.97083533  0.43916627  1
  Si  Si5943  1  0.89998400  0.97083533  0.63916627  1
  Si  Si5944  1  0.89998400  0.97083533  0.83916627  1
  Si  Si5945  1  0.89998400  0.84583533  0.06416627  1
  Si  Si5946  1  0.89998400  0.84583533  0.26416627  1
  Si  Si5947  1  0.89998400  0.84583533  0.46416627  1
  Si  Si5948  1  0.89998400  0.84583533  0.66416627  1
  Si  Si5949  1  0.89998400  0.84583533  0.86416627  1
  Si  Si5950  1  0.89998400  0.72083533  0.08916627  1
  Si  Si5951  1  0.89998400  0.72083533  0.28916627  1
  Si  Si5952  1  0.89998400  0.72083533  0.48916627  1
  Si  Si5953  1  0.89998400  0.72083533  0.68916627  1
  Si  Si5954  1  0.89998400  0.72083533  0.88916627  1
  Si  Si5955  1  0.89998400  0.59583533  0.11416627  1
  Si  Si5956  1  0.89998400  0.59583533  0.31416627  1
  Si  Si5957  1  0.89998400  0.59583533  0.51416627  1
  Si  Si5958  1  0.89998400  0.59583533  0.71416627  1
  Si  Si5959  1  0.89998400  0.59583533  0.91416627  1
  Si  Si5960  1  0.89998400  0.47083533  0.13916627  1
  Si  Si5961  1  0.89998400  0.47083533  0.33916627  1
  Si  Si5962  1  0.89998400  0.47083533  0.53916627  1
  Si  Si5963  1  0.89998400  0.47083533  0.73916627  1
  Si  Si5964  1  0.89998400  0.47083533  0.93916627  1
  Si  Si5965  1  0.89998400  0.34583533  0.16416627  1
  Si  Si5966  1  0.89998400  0.34583533  0.36416627  1
  Si  Si5967  1  0.89998400  0.34583533  0.56416627  1
  Si  Si5968  1  0.89998400  0.34583533  0.76416627  1
  Si  Si5969  1  0.89998400  0.34583533  0.96416627  1
  Si  Si5970  1  0.89998400  0.22083533  0.18916627  1
  Si  Si5971  1  0.89998400  0.22083533  0.38916627  1
  Si  Si5972  1  0.89998400  0.22083533  0.58916627  1
  Si  Si5973  1  0.89998400  0.22083533  0.78916627  1
  Si  Si5974  1  0.89998400  0.22083533  0.98916627  1
  Si  Si5975  1  0.89998400  0.97083533  0.06416627  1
  Si  Si5976  1  0.89998400  0.97083533  0.26416627  1
  Si  Si5977  1  0.89998400  0.97083533  0.46416627  1
  Si  Si5978  1  0.89998400  0.97083533  0.66416627  1
  Si  Si5979  1  0.89998400  0.97083533  0.86416627  1
  Si  Si5980  1  0.89998400  0.84583533  0.08916627  1
  Si  Si5981  1  0.89998400  0.84583533  0.28916627  1
  Si  Si5982  1  0.89998400  0.84583533  0.48916627  1
  Si  Si5983  1  0.89998400  0.84583533  0.68916627  1
  Si  Si5984  1  0.89998400  0.84583533  0.88916627  1
  Si  Si5985  1  0.89998400  0.72083533  0.11416627  1
  Si  Si5986  1  0.89998400  0.72083533  0.31416627  1
  Si  Si5987  1  0.89998400  0.72083533  0.51416627  1
  Si  Si5988  1  0.89998400  0.72083533  0.71416627  1
  Si  Si5989  1  0.89998400  0.72083533  0.91416627  1
  Si  Si5990  1  0.89998400  0.59583533  0.13916627  1
  Si  Si5991  1  0.89998400  0.59583533  0.33916627  1
  Si  Si5992  1  0.89998400  0.59583533  0.53916627  1
  Si  Si5993  1  0.89998400  0.59583533  0.73916627  1
  Si  Si5994  1  0.89998400  0.59583533  0.93916627  1
  Si  Si5995  1  0.89998400  0.47083533  0.16416627  1
  Si  Si5996  1  0.89998400  0.47083533  0.36416627  1
  Si  Si5997  1  0.89998400  0.47083533  0.56416627  1
  Si  Si5998  1  0.89998400  0.47083533  0.76416627  1
  Si  Si5999  1  0.89998400  0.47083533  0.96416627  1
  Si  Si6000  1  0.89998400  0.34583533  0.18916627  1
  Si  Si6001  1  0.89998400  0.34583533  0.38916627  1
  Si  Si6002  1  0.89998400  0.34583533  0.58916627  1
  Si  Si6003  1  0.89998400  0.34583533  0.78916627  1
  Si  Si6004  1  0.89998400  0.34583533  0.98916627  1
  Si  Si6005  1  0.89998400  0.97083533  0.08916627  1
  Si  Si6006  1  0.89998400  0.97083533  0.28916627  1
  Si  Si6007  1  0.89998400  0.97083533  0.48916627  1
  Si  Si6008  1  0.89998400  0.97083533  0.68916627  1
  Si  Si6009  1  0.89998400  0.97083533  0.88916627  1
  Si  Si6010  1  0.89998400  0.84583533  0.11416627  1
  Si  Si6011  1  0.89998400  0.84583533  0.31416627  1
  Si  Si6012  1  0.89998400  0.84583533  0.51416627  1
  Si  Si6013  1  0.89998400  0.84583533  0.71416627  1
  Si  Si6014  1  0.89998400  0.84583533  0.91416627  1
  Si  Si6015  1  0.89998400  0.72083533  0.13916627  1
  Si  Si6016  1  0.89998400  0.72083533  0.33916627  1
  Si  Si6017  1  0.89998400  0.72083533  0.53916627  1
  Si  Si6018  1  0.89998400  0.72083533  0.73916627  1
  Si  Si6019  1  0.89998400  0.72083533  0.93916627  1
  Si  Si6020  1  0.89998400  0.59583533  0.16416627  1
  Si  Si6021  1  0.89998400  0.59583533  0.36416627  1
  Si  Si6022  1  0.89998400  0.59583533  0.56416627  1
  Si  Si6023  1  0.89998400  0.59583533  0.76416627  1
  Si  Si6024  1  0.89998400  0.59583533  0.96416627  1
  Si  Si6025  1  0.89998400  0.47083533  0.18916627  1
  Si  Si6026  1  0.89998400  0.47083533  0.38916627  1
  Si  Si6027  1  0.89998400  0.47083533  0.58916627  1
  Si  Si6028  1  0.89998400  0.47083533  0.78916627  1
  Si  Si6029  1  0.89998400  0.47083533  0.98916627  1
  Si  Si6030  1  0.89998400  0.97083533  0.11416627  1
  Si  Si6031  1  0.89998400  0.97083533  0.31416627  1
  Si  Si6032  1  0.89998400  0.97083533  0.51416627  1
  Si  Si6033  1  0.89998400  0.97083533  0.71416627  1
  Si  Si6034  1  0.89998400  0.97083533  0.91416627  1
  Si  Si6035  1  0.89998400  0.84583533  0.13916627  1
  Si  Si6036  1  0.89998400  0.84583533  0.33916627  1
  Si  Si6037  1  0.89998400  0.84583533  0.53916627  1
  Si  Si6038  1  0.89998400  0.84583533  0.73916627  1
  Si  Si6039  1  0.89998400  0.84583533  0.93916627  1
  Si  Si6040  1  0.89998400  0.72083533  0.16416627  1
  Si  Si6041  1  0.89998400  0.72083533  0.36416627  1
  Si  Si6042  1  0.89998400  0.72083533  0.56416627  1
  Si  Si6043  1  0.89998400  0.72083533  0.76416627  1
  Si  Si6044  1  0.89998400  0.72083533  0.96416627  1
  Si  Si6045  1  0.89998400  0.59583533  0.18916627  1
  Si  Si6046  1  0.89998400  0.59583533  0.38916627  1
  Si  Si6047  1  0.89998400  0.59583533  0.58916627  1
  Si  Si6048  1  0.89998400  0.59583533  0.78916627  1
  Si  Si6049  1  0.89998400  0.59583533  0.98916627  1
  Si  Si6050  1  0.89998400  0.97083533  0.13916627  1
  Si  Si6051  1  0.89998400  0.97083533  0.33916627  1
  Si  Si6052  1  0.89998400  0.97083533  0.53916627  1
  Si  Si6053  1  0.89998400  0.97083533  0.73916627  1
  Si  Si6054  1  0.89998400  0.97083533  0.93916627  1
  Si  Si6055  1  0.89998400  0.84583533  0.16416627  1
  Si  Si6056  1  0.89998400  0.84583533  0.36416627  1
  Si  Si6057  1  0.89998400  0.84583533  0.56416627  1
  Si  Si6058  1  0.89998400  0.84583533  0.76416627  1
  Si  Si6059  1  0.89998400  0.84583533  0.96416627  1
  Si  Si6060  1  0.89998400  0.72083533  0.18916627  1
  Si  Si6061  1  0.89998400  0.72083533  0.38916627  1
  Si  Si6062  1  0.89998400  0.72083533  0.58916627  1
  Si  Si6063  1  0.89998400  0.72083533  0.78916627  1
  Si  Si6064  1  0.89998400  0.72083533  0.98916627  1
  Si  Si6065  1  0.89998400  0.97083533  0.16416627  1
  Si  Si6066  1  0.89998400  0.97083533  0.36416627  1
  Si  Si6067  1  0.89998400  0.97083533  0.56416627  1
  Si  Si6068  1  0.89998400  0.97083533  0.76416627  1
  Si  Si6069  1  0.89998400  0.97083533  0.96416627  1
  Si  Si6070  1  0.89998400  0.84583533  0.18916627  1
  Si  Si6071  1  0.89998400  0.84583533  0.38916627  1
  Si  Si6072  1  0.89998400  0.84583533  0.58916627  1
  Si  Si6073  1  0.89998400  0.84583533  0.78916627  1
  Si  Si6074  1  0.89998400  0.84583533  0.98916627  1
  Si  Si6075  1  0.89998400  0.97083533  0.18916627  1
  Si  Si6076  1  0.89998400  0.97083533  0.38916627  1
  Si  Si6077  1  0.89998400  0.97083533  0.58916627  1
  Si  Si6078  1  0.89998400  0.97083533  0.78916627  1
  Si  Si6079  1  0.89998400  0.97083533  0.98916627  1
  Si  Si6080  1  0.50003000  0.02082958  0.00416742  1
  Si  Si6081  1  0.50003000  0.02082958  0.20416742  1
  Si  Si6082  1  0.50003000  0.02082958  0.40416742  1
  Si  Si6083  1  0.50003000  0.02082958  0.60416742  1
  Si  Si6084  1  0.50003000  0.02082958  0.80416742  1
  Si  Si6085  1  0.50003000  0.14582958  0.00416742  1
  Si  Si6086  1  0.50003000  0.14582958  0.20416742  1
  Si  Si6087  1  0.50003000  0.14582958  0.40416742  1
  Si  Si6088  1  0.50003000  0.14582958  0.60416742  1
  Si  Si6089  1  0.50003000  0.14582958  0.80416742  1
  Si  Si6090  1  0.50003000  0.02082958  0.02916742  1
  Si  Si6091  1  0.50003000  0.02082958  0.22916742  1
  Si  Si6092  1  0.50003000  0.02082958  0.42916742  1
  Si  Si6093  1  0.50003000  0.02082958  0.62916742  1
  Si  Si6094  1  0.50003000  0.02082958  0.82916742  1
  Si  Si6095  1  0.50003000  0.27082958  0.00416742  1
  Si  Si6096  1  0.50003000  0.27082958  0.20416742  1
  Si  Si6097  1  0.50003000  0.27082958  0.40416742  1
  Si  Si6098  1  0.50003000  0.27082958  0.60416742  1
  Si  Si6099  1  0.50003000  0.27082958  0.80416742  1
  Si  Si6100  1  0.50003000  0.14582958  0.02916742  1
  Si  Si6101  1  0.50003000  0.14582958  0.22916742  1
  Si  Si6102  1  0.50003000  0.14582958  0.42916742  1
  Si  Si6103  1  0.50003000  0.14582958  0.62916742  1
  Si  Si6104  1  0.50003000  0.14582958  0.82916742  1
  Si  Si6105  1  0.50003000  0.02082958  0.05416742  1
  Si  Si6106  1  0.50003000  0.02082958  0.25416742  1
  Si  Si6107  1  0.50003000  0.02082958  0.45416742  1
  Si  Si6108  1  0.50003000  0.02082958  0.65416742  1
  Si  Si6109  1  0.50003000  0.02082958  0.85416742  1
  Si  Si6110  1  0.50003000  0.39582958  0.00416742  1
  Si  Si6111  1  0.50003000  0.39582958  0.20416742  1
  Si  Si6112  1  0.50003000  0.39582958  0.40416742  1
  Si  Si6113  1  0.50003000  0.39582958  0.60416742  1
  Si  Si6114  1  0.50003000  0.39582958  0.80416742  1
  Si  Si6115  1  0.50003000  0.27082958  0.02916742  1
  Si  Si6116  1  0.50003000  0.27082958  0.22916742  1
  Si  Si6117  1  0.50003000  0.27082958  0.42916742  1
  Si  Si6118  1  0.50003000  0.27082958  0.62916742  1
  Si  Si6119  1  0.50003000  0.27082958  0.82916742  1
  Si  Si6120  1  0.50003000  0.14582958  0.05416742  1
  Si  Si6121  1  0.50003000  0.14582958  0.25416742  1
  Si  Si6122  1  0.50003000  0.14582958  0.45416742  1
  Si  Si6123  1  0.50003000  0.14582958  0.65416742  1
  Si  Si6124  1  0.50003000  0.14582958  0.85416742  1
  Si  Si6125  1  0.50003000  0.02082958  0.07916742  1
  Si  Si6126  1  0.50003000  0.02082958  0.27916742  1
  Si  Si6127  1  0.50003000  0.02082958  0.47916742  1
  Si  Si6128  1  0.50003000  0.02082958  0.67916742  1
  Si  Si6129  1  0.50003000  0.02082958  0.87916742  1
  Si  Si6130  1  0.50003000  0.52082958  0.00416742  1
  Si  Si6131  1  0.50003000  0.52082958  0.20416742  1
  Si  Si6132  1  0.50003000  0.52082958  0.40416742  1
  Si  Si6133  1  0.50003000  0.52082958  0.60416742  1
  Si  Si6134  1  0.50003000  0.52082958  0.80416742  1
  Si  Si6135  1  0.50003000  0.39582958  0.02916742  1
  Si  Si6136  1  0.50003000  0.39582958  0.22916742  1
  Si  Si6137  1  0.50003000  0.39582958  0.42916742  1
  Si  Si6138  1  0.50003000  0.39582958  0.62916742  1
  Si  Si6139  1  0.50003000  0.39582958  0.82916742  1
  Si  Si6140  1  0.50003000  0.27082958  0.05416742  1
  Si  Si6141  1  0.50003000  0.27082958  0.25416742  1
  Si  Si6142  1  0.50003000  0.27082958  0.45416742  1
  Si  Si6143  1  0.50003000  0.27082958  0.65416742  1
  Si  Si6144  1  0.50003000  0.27082958  0.85416742  1
  Si  Si6145  1  0.50003000  0.14582958  0.07916742  1
  Si  Si6146  1  0.50003000  0.14582958  0.27916742  1
  Si  Si6147  1  0.50003000  0.14582958  0.47916742  1
  Si  Si6148  1  0.50003000  0.14582958  0.67916742  1
  Si  Si6149  1  0.50003000  0.14582958  0.87916742  1
  Si  Si6150  1  0.50003000  0.02082958  0.10416742  1
  Si  Si6151  1  0.50003000  0.02082958  0.30416742  1
  Si  Si6152  1  0.50003000  0.02082958  0.50416742  1
  Si  Si6153  1  0.50003000  0.02082958  0.70416742  1
  Si  Si6154  1  0.50003000  0.02082958  0.90416742  1
  Si  Si6155  1  0.50003000  0.64582958  0.00416742  1
  Si  Si6156  1  0.50003000  0.64582958  0.20416742  1
  Si  Si6157  1  0.50003000  0.64582958  0.40416742  1
  Si  Si6158  1  0.50003000  0.64582958  0.60416742  1
  Si  Si6159  1  0.50003000  0.64582958  0.80416742  1
  Si  Si6160  1  0.50003000  0.52082958  0.02916742  1
  Si  Si6161  1  0.50003000  0.52082958  0.22916742  1
  Si  Si6162  1  0.50003000  0.52082958  0.42916742  1
  Si  Si6163  1  0.50003000  0.52082958  0.62916742  1
  Si  Si6164  1  0.50003000  0.52082958  0.82916742  1
  Si  Si6165  1  0.50003000  0.39582958  0.05416742  1
  Si  Si6166  1  0.50003000  0.39582958  0.25416742  1
  Si  Si6167  1  0.50003000  0.39582958  0.45416742  1
  Si  Si6168  1  0.50003000  0.39582958  0.65416742  1
  Si  Si6169  1  0.50003000  0.39582958  0.85416742  1
  Si  Si6170  1  0.50003000  0.27082958  0.07916742  1
  Si  Si6171  1  0.50003000  0.27082958  0.27916742  1
  Si  Si6172  1  0.50003000  0.27082958  0.47916742  1
  Si  Si6173  1  0.50003000  0.27082958  0.67916742  1
  Si  Si6174  1  0.50003000  0.27082958  0.87916742  1
  Si  Si6175  1  0.50003000  0.14582958  0.10416742  1
  Si  Si6176  1  0.50003000  0.14582958  0.30416742  1
  Si  Si6177  1  0.50003000  0.14582958  0.50416742  1
  Si  Si6178  1  0.50003000  0.14582958  0.70416742  1
  Si  Si6179  1  0.50003000  0.14582958  0.90416742  1
  Si  Si6180  1  0.50003000  0.02082958  0.12916742  1
  Si  Si6181  1  0.50003000  0.02082958  0.32916742  1
  Si  Si6182  1  0.50003000  0.02082958  0.52916742  1
  Si  Si6183  1  0.50003000  0.02082958  0.72916742  1
  Si  Si6184  1  0.50003000  0.02082958  0.92916742  1
  Si  Si6185  1  0.50003000  0.77082958  0.00416742  1
  Si  Si6186  1  0.50003000  0.77082958  0.20416742  1
  Si  Si6187  1  0.50003000  0.77082958  0.40416742  1
  Si  Si6188  1  0.50003000  0.77082958  0.60416742  1
  Si  Si6189  1  0.50003000  0.77082958  0.80416742  1
  Si  Si6190  1  0.50003000  0.64582958  0.02916742  1
  Si  Si6191  1  0.50003000  0.64582958  0.22916742  1
  Si  Si6192  1  0.50003000  0.64582958  0.42916742  1
  Si  Si6193  1  0.50003000  0.64582958  0.62916742  1
  Si  Si6194  1  0.50003000  0.64582958  0.82916742  1
  Si  Si6195  1  0.50003000  0.52082958  0.05416742  1
  Si  Si6196  1  0.50003000  0.52082958  0.25416742  1
  Si  Si6197  1  0.50003000  0.52082958  0.45416742  1
  Si  Si6198  1  0.50003000  0.52082958  0.65416742  1
  Si  Si6199  1  0.50003000  0.52082958  0.85416742  1
  Si  Si6200  1  0.50003000  0.39582958  0.07916742  1
  Si  Si6201  1  0.50003000  0.39582958  0.27916742  1
  Si  Si6202  1  0.50003000  0.39582958  0.47916742  1
  Si  Si6203  1  0.50003000  0.39582958  0.67916742  1
  Si  Si6204  1  0.50003000  0.39582958  0.87916742  1
  Si  Si6205  1  0.50003000  0.27082958  0.10416742  1
  Si  Si6206  1  0.50003000  0.27082958  0.30416742  1
  Si  Si6207  1  0.50003000  0.27082958  0.50416742  1
  Si  Si6208  1  0.50003000  0.27082958  0.70416742  1
  Si  Si6209  1  0.50003000  0.27082958  0.90416742  1
  Si  Si6210  1  0.50003000  0.14582958  0.12916742  1
  Si  Si6211  1  0.50003000  0.14582958  0.32916742  1
  Si  Si6212  1  0.50003000  0.14582958  0.52916742  1
  Si  Si6213  1  0.50003000  0.14582958  0.72916742  1
  Si  Si6214  1  0.50003000  0.14582958  0.92916742  1
  Si  Si6215  1  0.50003000  0.02082958  0.15416742  1
  Si  Si6216  1  0.50003000  0.02082958  0.35416742  1
  Si  Si6217  1  0.50003000  0.02082958  0.55416742  1
  Si  Si6218  1  0.50003000  0.02082958  0.75416742  1
  Si  Si6219  1  0.50003000  0.02082958  0.95416742  1
  Si  Si6220  1  0.50003000  0.89582958  0.00416742  1
  Si  Si6221  1  0.50003000  0.89582958  0.20416742  1
  Si  Si6222  1  0.50003000  0.89582958  0.40416742  1
  Si  Si6223  1  0.50003000  0.89582958  0.60416742  1
  Si  Si6224  1  0.50003000  0.89582958  0.80416742  1
  Si  Si6225  1  0.50003000  0.77082958  0.02916742  1
  Si  Si6226  1  0.50003000  0.77082958  0.22916742  1
  Si  Si6227  1  0.50003000  0.77082958  0.42916742  1
  Si  Si6228  1  0.50003000  0.77082958  0.62916742  1
  Si  Si6229  1  0.50003000  0.77082958  0.82916742  1
  Si  Si6230  1  0.50003000  0.64582958  0.05416742  1
  Si  Si6231  1  0.50003000  0.64582958  0.25416742  1
  Si  Si6232  1  0.50003000  0.64582958  0.45416742  1
  Si  Si6233  1  0.50003000  0.64582958  0.65416742  1
  Si  Si6234  1  0.50003000  0.64582958  0.85416742  1
  Si  Si6235  1  0.50003000  0.52082958  0.07916742  1
  Si  Si6236  1  0.50003000  0.52082958  0.27916742  1
  Si  Si6237  1  0.50003000  0.52082958  0.47916742  1
  Si  Si6238  1  0.50003000  0.52082958  0.67916742  1
  Si  Si6239  1  0.50003000  0.52082958  0.87916742  1
  Si  Si6240  1  0.50003000  0.39582958  0.10416742  1
  Si  Si6241  1  0.50003000  0.39582958  0.30416742  1
  Si  Si6242  1  0.50003000  0.39582958  0.50416742  1
  Si  Si6243  1  0.50003000  0.39582958  0.70416742  1
  Si  Si6244  1  0.50003000  0.39582958  0.90416742  1
  Si  Si6245  1  0.50003000  0.27082958  0.12916742  1
  Si  Si6246  1  0.50003000  0.27082958  0.32916742  1
  Si  Si6247  1  0.50003000  0.27082958  0.52916742  1
  Si  Si6248  1  0.50003000  0.27082958  0.72916742  1
  Si  Si6249  1  0.50003000  0.27082958  0.92916742  1
  Si  Si6250  1  0.50003000  0.14582958  0.15416742  1
  Si  Si6251  1  0.50003000  0.14582958  0.35416742  1
  Si  Si6252  1  0.50003000  0.14582958  0.55416742  1
  Si  Si6253  1  0.50003000  0.14582958  0.75416742  1
  Si  Si6254  1  0.50003000  0.14582958  0.95416742  1
  Si  Si6255  1  0.50003000  0.02082958  0.17916742  1
  Si  Si6256  1  0.50003000  0.02082958  0.37916742  1
  Si  Si6257  1  0.50003000  0.02082958  0.57916742  1
  Si  Si6258  1  0.50003000  0.02082958  0.77916742  1
  Si  Si6259  1  0.50003000  0.02082958  0.97916742  1
  Si  Si6260  1  0.50003000  0.89582958  0.02916742  1
  Si  Si6261  1  0.50003000  0.89582958  0.22916742  1
  Si  Si6262  1  0.50003000  0.89582958  0.42916742  1
  Si  Si6263  1  0.50003000  0.89582958  0.62916742  1
  Si  Si6264  1  0.50003000  0.89582958  0.82916742  1
  Si  Si6265  1  0.50003000  0.77082958  0.05416742  1
  Si  Si6266  1  0.50003000  0.77082958  0.25416742  1
  Si  Si6267  1  0.50003000  0.77082958  0.45416742  1
  Si  Si6268  1  0.50003000  0.77082958  0.65416742  1
  Si  Si6269  1  0.50003000  0.77082958  0.85416742  1
  Si  Si6270  1  0.50003000  0.64582958  0.07916742  1
  Si  Si6271  1  0.50003000  0.64582958  0.27916742  1
  Si  Si6272  1  0.50003000  0.64582958  0.47916742  1
  Si  Si6273  1  0.50003000  0.64582958  0.67916742  1
  Si  Si6274  1  0.50003000  0.64582958  0.87916742  1
  Si  Si6275  1  0.50003000  0.52082958  0.10416742  1
  Si  Si6276  1  0.50003000  0.52082958  0.30416742  1
  Si  Si6277  1  0.50003000  0.52082958  0.50416742  1
  Si  Si6278  1  0.50003000  0.52082958  0.70416742  1
  Si  Si6279  1  0.50003000  0.52082958  0.90416742  1
  Si  Si6280  1  0.50003000  0.39582958  0.12916742  1
  Si  Si6281  1  0.50003000  0.39582958  0.32916742  1
  Si  Si6282  1  0.50003000  0.39582958  0.52916742  1
  Si  Si6283  1  0.50003000  0.39582958  0.72916742  1
  Si  Si6284  1  0.50003000  0.39582958  0.92916742  1
  Si  Si6285  1  0.50003000  0.27082958  0.15416742  1
  Si  Si6286  1  0.50003000  0.27082958  0.35416742  1
  Si  Si6287  1  0.50003000  0.27082958  0.55416742  1
  Si  Si6288  1  0.50003000  0.27082958  0.75416742  1
  Si  Si6289  1  0.50003000  0.27082958  0.95416742  1
  Si  Si6290  1  0.50003000  0.14582958  0.17916742  1
  Si  Si6291  1  0.50003000  0.14582958  0.37916742  1
  Si  Si6292  1  0.50003000  0.14582958  0.57916742  1
  Si  Si6293  1  0.50003000  0.14582958  0.77916742  1
  Si  Si6294  1  0.50003000  0.14582958  0.97916742  1
  Si  Si6295  1  0.50003000  0.89582958  0.05416742  1
  Si  Si6296  1  0.50003000  0.89582958  0.25416742  1
  Si  Si6297  1  0.50003000  0.89582958  0.45416742  1
  Si  Si6298  1  0.50003000  0.89582958  0.65416742  1
  Si  Si6299  1  0.50003000  0.89582958  0.85416742  1
  Si  Si6300  1  0.50003000  0.77082958  0.07916742  1
  Si  Si6301  1  0.50003000  0.77082958  0.27916742  1
  Si  Si6302  1  0.50003000  0.77082958  0.47916742  1
  Si  Si6303  1  0.50003000  0.77082958  0.67916742  1
  Si  Si6304  1  0.50003000  0.77082958  0.87916742  1
  Si  Si6305  1  0.50003000  0.64582958  0.10416742  1
  Si  Si6306  1  0.50003000  0.64582958  0.30416742  1
  Si  Si6307  1  0.50003000  0.64582958  0.50416742  1
  Si  Si6308  1  0.50003000  0.64582958  0.70416742  1
  Si  Si6309  1  0.50003000  0.64582958  0.90416742  1
  Si  Si6310  1  0.50003000  0.52082958  0.12916742  1
  Si  Si6311  1  0.50003000  0.52082958  0.32916742  1
  Si  Si6312  1  0.50003000  0.52082958  0.52916742  1
  Si  Si6313  1  0.50003000  0.52082958  0.72916742  1
  Si  Si6314  1  0.50003000  0.52082958  0.92916742  1
  Si  Si6315  1  0.50003000  0.39582958  0.15416742  1
  Si  Si6316  1  0.50003000  0.39582958  0.35416742  1
  Si  Si6317  1  0.50003000  0.39582958  0.55416742  1
  Si  Si6318  1  0.50003000  0.39582958  0.75416742  1
  Si  Si6319  1  0.50003000  0.39582958  0.95416742  1
  Si  Si6320  1  0.50003000  0.27082958  0.17916742  1
  Si  Si6321  1  0.50003000  0.27082958  0.37916742  1
  Si  Si6322  1  0.50003000  0.27082958  0.57916742  1
  Si  Si6323  1  0.50003000  0.27082958  0.77916742  1
  Si  Si6324  1  0.50003000  0.27082958  0.97916742  1
  Si  Si6325  1  0.50003000  0.89582958  0.07916742  1
  Si  Si6326  1  0.50003000  0.89582958  0.27916742  1
  Si  Si6327  1  0.50003000  0.89582958  0.47916742  1
  Si  Si6328  1  0.50003000  0.89582958  0.67916742  1
  Si  Si6329  1  0.50003000  0.89582958  0.87916742  1
  Si  Si6330  1  0.50003000  0.77082958  0.10416742  1
  Si  Si6331  1  0.50003000  0.77082958  0.30416742  1
  Si  Si6332  1  0.50003000  0.77082958  0.50416742  1
  Si  Si6333  1  0.50003000  0.77082958  0.70416742  1
  Si  Si6334  1  0.50003000  0.77082958  0.90416742  1
  Si  Si6335  1  0.50003000  0.64582958  0.12916742  1
  Si  Si6336  1  0.50003000  0.64582958  0.32916742  1
  Si  Si6337  1  0.50003000  0.64582958  0.52916742  1
  Si  Si6338  1  0.50003000  0.64582958  0.72916742  1
  Si  Si6339  1  0.50003000  0.64582958  0.92916742  1
  Si  Si6340  1  0.50003000  0.52082958  0.15416742  1
  Si  Si6341  1  0.50003000  0.52082958  0.35416742  1
  Si  Si6342  1  0.50003000  0.52082958  0.55416742  1
  Si  Si6343  1  0.50003000  0.52082958  0.75416742  1
  Si  Si6344  1  0.50003000  0.52082958  0.95416742  1
  Si  Si6345  1  0.50003000  0.39582958  0.17916742  1
  Si  Si6346  1  0.50003000  0.39582958  0.37916742  1
  Si  Si6347  1  0.50003000  0.39582958  0.57916742  1
  Si  Si6348  1  0.50003000  0.39582958  0.77916742  1
  Si  Si6349  1  0.50003000  0.39582958  0.97916742  1
  Si  Si6350  1  0.50003000  0.89582958  0.10416742  1
  Si  Si6351  1  0.50003000  0.89582958  0.30416742  1
  Si  Si6352  1  0.50003000  0.89582958  0.50416742  1
  Si  Si6353  1  0.50003000  0.89582958  0.70416742  1
  Si  Si6354  1  0.50003000  0.89582958  0.90416742  1
  Si  Si6355  1  0.50003000  0.77082958  0.12916742  1
  Si  Si6356  1  0.50003000  0.77082958  0.32916742  1
  Si  Si6357  1  0.50003000  0.77082958  0.52916742  1
  Si  Si6358  1  0.50003000  0.77082958  0.72916742  1
  Si  Si6359  1  0.50003000  0.77082958  0.92916742  1
  Si  Si6360  1  0.50003000  0.64582958  0.15416742  1
  Si  Si6361  1  0.50003000  0.64582958  0.35416742  1
  Si  Si6362  1  0.50003000  0.64582958  0.55416742  1
  Si  Si6363  1  0.50003000  0.64582958  0.75416742  1
  Si  Si6364  1  0.50003000  0.64582958  0.95416742  1
  Si  Si6365  1  0.50003000  0.52082958  0.17916742  1
  Si  Si6366  1  0.50003000  0.52082958  0.37916742  1
  Si  Si6367  1  0.50003000  0.52082958  0.57916742  1
  Si  Si6368  1  0.50003000  0.52082958  0.77916742  1
  Si  Si6369  1  0.50003000  0.52082958  0.97916742  1
  Si  Si6370  1  0.50003000  0.89582958  0.12916742  1
  Si  Si6371  1  0.50003000  0.89582958  0.32916742  1
  Si  Si6372  1  0.50003000  0.89582958  0.52916742  1
  Si  Si6373  1  0.50003000  0.89582958  0.72916742  1
  Si  Si6374  1  0.50003000  0.89582958  0.92916742  1
  Si  Si6375  1  0.50003000  0.77082958  0.15416742  1
  Si  Si6376  1  0.50003000  0.77082958  0.35416742  1
  Si  Si6377  1  0.50003000  0.77082958  0.55416742  1
  Si  Si6378  1  0.50003000  0.77082958  0.75416742  1
  Si  Si6379  1  0.50003000  0.77082958  0.95416742  1
  Si  Si6380  1  0.50003000  0.64582958  0.17916742  1
  Si  Si6381  1  0.50003000  0.64582958  0.37916742  1
  Si  Si6382  1  0.50003000  0.64582958  0.57916742  1
  Si  Si6383  1  0.50003000  0.64582958  0.77916742  1
  Si  Si6384  1  0.50003000  0.64582958  0.97916742  1
  Si  Si6385  1  0.50003000  0.89582958  0.15416742  1
  Si  Si6386  1  0.50003000  0.89582958  0.35416742  1
  Si  Si6387  1  0.50003000  0.89582958  0.55416742  1
  Si  Si6388  1  0.50003000  0.89582958  0.75416742  1
  Si  Si6389  1  0.50003000  0.89582958  0.95416742  1
  Si  Si6390  1  0.50003000  0.77082958  0.17916742  1
  Si  Si6391  1  0.50003000  0.77082958  0.37916742  1
  Si  Si6392  1  0.50003000  0.77082958  0.57916742  1
  Si  Si6393  1  0.50003000  0.77082958  0.77916742  1
  Si  Si6394  1  0.50003000  0.77082958  0.97916742  1
  Si  Si6395  1  0.50003000  0.89582958  0.17916742  1
  Si  Si6396  1  0.50003000  0.89582958  0.37916742  1
  Si  Si6397  1  0.50003000  0.89582958  0.57916742  1
  Si  Si6398  1  0.50003000  0.89582958  0.77916742  1
  Si  Si6399  1  0.50003000  0.89582958  0.97916742  1
